
---------- Begin Simulation Statistics ----------
simSeconds                                   0.274533                       # Number of seconds simulated (Second)
simTicks                                 274533334000                       # Number of ticks simulated (Tick)
finalTick                                274533334000                       # Number of ticks from beginning of simulation (restored from checkpoints and never reset) (Tick)
simFreq                                  1000000000000                       # The number of ticks per simulated second ((Tick/Second))
hostSeconds                                    120.21                       # Real time elapsed on the host (Second)
hostTickRate                               2283794237                       # The number of ticks simulated per host second (ticks/s) ((Tick/Second))
hostMemory                                     699208                       # Number of bytes of host memory used (Byte)
simInsts                                     51550694                       # Number of instructions simulated (Count)
simOps                                       77184442                       # Number of ops (including micro ops) simulated (Count)
hostInstRate                                   428838                       # Simulator instruction rate (inst/s) ((Count/Second))
hostOpRate                                     642077                       # Simulator op (including micro ops) rate (op/s) ((Count/Second))
system.clk_domain.clock                          1000                       # Clock period in ticks (Tick)
system.clk_domain.voltage_domain.voltage            1                       # Voltage in Volts (Volt)
system.cpu.numCycles                        274533334                       # Number of cpu cycles simulated (Cycle)
system.cpu.cpi                               5.325489                       # CPI: cycles per instruction (core level) ((Cycle/Count))
system.cpu.ipc                               0.187776                       # IPC: instructions per cycle (core level) ((Count/Cycle))
system.cpu.numWorkItemsStarted                      0                       # Number of work items this cpu started (Count)
system.cpu.numWorkItemsCompleted                    0                       # Number of work items this cpu completed (Count)
system.cpu.commitStats0.numInsts             51550818                       # Number of instructions committed (thread level) (Count)
system.cpu.commitStats0.numOps               77184809                       # Number of ops (including micro ops) committed (thread level) (Count)
system.cpu.commitStats0.numInstsNotNOP              0                       # Number of instructions committed excluding NOPs or prefetches (Count)
system.cpu.commitStats0.numOpsNotNOP                0                       # Number of Ops (including micro ops) Simulated (Count)
system.cpu.commitStats0.cpi                  5.325489                       # CPI: cycles per instruction (thread level) ((Cycle/Count))
system.cpu.commitStats0.ipc                  0.187776                       # IPC: instructions per cycle (thread level) ((Count/Cycle))
system.cpu.commitStats0.numMemRefs                  0                       # Number of memory references committed (Count)
system.cpu.commitStats0.numFpInsts           18462644                       # Number of float instructions (Count)
system.cpu.commitStats0.numIntInsts          66103740                       # Number of integer instructions (Count)
system.cpu.commitStats0.numLoadInsts         22163025                       # Number of load instructions (Count)
system.cpu.commitStats0.numStoreInsts         4657370                       # Number of store instructions (Count)
system.cpu.commitStats0.numVecInsts                 0                       # Number of vector instructions (Count)
system.cpu.commitStats0.committedInstType::No_OpClass       441633      0.57%      0.57% # Class of committed instruction. (Count)
system.cpu.commitStats0.committedInstType::IntAlu     40075858     51.92%     52.49% # Class of committed instruction. (Count)
system.cpu.commitStats0.committedInstType::IntMult         9468      0.01%     52.51% # Class of committed instruction. (Count)
system.cpu.commitStats0.committedInstType::IntDiv         1806      0.00%     52.51% # Class of committed instruction. (Count)
system.cpu.commitStats0.committedInstType::FloatAdd      5248882      6.80%     59.31% # Class of committed instruction. (Count)
system.cpu.commitStats0.committedInstType::FloatCmp            0      0.00%     59.31% # Class of committed instruction. (Count)
system.cpu.commitStats0.committedInstType::FloatCvt           32      0.00%     59.31% # Class of committed instruction. (Count)
system.cpu.commitStats0.committedInstType::FloatMult            0      0.00%     59.31% # Class of committed instruction. (Count)
system.cpu.commitStats0.committedInstType::FloatMultAcc            0      0.00%     59.31% # Class of committed instruction. (Count)
system.cpu.commitStats0.committedInstType::FloatDiv            0      0.00%     59.31% # Class of committed instruction. (Count)
system.cpu.commitStats0.committedInstType::FloatMisc            0      0.00%     59.31% # Class of committed instruction. (Count)
system.cpu.commitStats0.committedInstType::FloatSqrt            0      0.00%     59.31% # Class of committed instruction. (Count)
system.cpu.commitStats0.committedInstType::SimdAdd          572      0.00%     59.31% # Class of committed instruction. (Count)
system.cpu.commitStats0.committedInstType::SimdAddAcc            0      0.00%     59.31% # Class of committed instruction. (Count)
system.cpu.commitStats0.committedInstType::SimdAlu       228516      0.30%     59.61% # Class of committed instruction. (Count)
system.cpu.commitStats0.committedInstType::SimdCmp            0      0.00%     59.61% # Class of committed instruction. (Count)
system.cpu.commitStats0.committedInstType::SimdCvt         1494      0.00%     59.61% # Class of committed instruction. (Count)
system.cpu.commitStats0.committedInstType::SimdMisc       319877      0.41%     60.02% # Class of committed instruction. (Count)
system.cpu.commitStats0.committedInstType::SimdMult            0      0.00%     60.02% # Class of committed instruction. (Count)
system.cpu.commitStats0.committedInstType::SimdMultAcc            0      0.00%     60.02% # Class of committed instruction. (Count)
system.cpu.commitStats0.committedInstType::SimdMatMultAcc            0      0.00%     60.02% # Class of committed instruction. (Count)
system.cpu.commitStats0.committedInstType::SimdShift          226      0.00%     60.02% # Class of committed instruction. (Count)
system.cpu.commitStats0.committedInstType::SimdShiftAcc            0      0.00%     60.02% # Class of committed instruction. (Count)
system.cpu.commitStats0.committedInstType::SimdDiv            0      0.00%     60.02% # Class of committed instruction. (Count)
system.cpu.commitStats0.committedInstType::SimdSqrt            0      0.00%     60.02% # Class of committed instruction. (Count)
system.cpu.commitStats0.committedInstType::SimdFloatAdd      1650278      2.14%     62.16% # Class of committed instruction. (Count)
system.cpu.commitStats0.committedInstType::SimdFloatAlu            0      0.00%     62.16% # Class of committed instruction. (Count)
system.cpu.commitStats0.committedInstType::SimdFloatCmp            0      0.00%     62.16% # Class of committed instruction. (Count)
system.cpu.commitStats0.committedInstType::SimdFloatCvt       108246      0.14%     62.30% # Class of committed instruction. (Count)
system.cpu.commitStats0.committedInstType::SimdFloatDiv       107304      0.14%     62.44% # Class of committed instruction. (Count)
system.cpu.commitStats0.committedInstType::SimdFloatMisc            0      0.00%     62.44% # Class of committed instruction. (Count)
system.cpu.commitStats0.committedInstType::SimdFloatMult      2170222      2.81%     65.25% # Class of committed instruction. (Count)
system.cpu.commitStats0.committedInstType::SimdFloatMultAcc            0      0.00%     65.25% # Class of committed instruction. (Count)
system.cpu.commitStats0.committedInstType::SimdFloatMatMultAcc            0      0.00%     65.25% # Class of committed instruction. (Count)
system.cpu.commitStats0.committedInstType::SimdFloatSqrt            0      0.00%     65.25% # Class of committed instruction. (Count)
system.cpu.commitStats0.committedInstType::SimdReduceAdd            0      0.00%     65.25% # Class of committed instruction. (Count)
system.cpu.commitStats0.committedInstType::SimdReduceAlu            0      0.00%     65.25% # Class of committed instruction. (Count)
system.cpu.commitStats0.committedInstType::SimdReduceCmp            0      0.00%     65.25% # Class of committed instruction. (Count)
system.cpu.commitStats0.committedInstType::SimdFloatReduceAdd            0      0.00%     65.25% # Class of committed instruction. (Count)
system.cpu.commitStats0.committedInstType::SimdFloatReduceCmp            0      0.00%     65.25% # Class of committed instruction. (Count)
system.cpu.commitStats0.committedInstType::SimdAes            0      0.00%     65.25% # Class of committed instruction. (Count)
system.cpu.commitStats0.committedInstType::SimdAesMix            0      0.00%     65.25% # Class of committed instruction. (Count)
system.cpu.commitStats0.committedInstType::SimdSha1Hash            0      0.00%     65.25% # Class of committed instruction. (Count)
system.cpu.commitStats0.committedInstType::SimdSha1Hash2            0      0.00%     65.25% # Class of committed instruction. (Count)
system.cpu.commitStats0.committedInstType::SimdSha256Hash            0      0.00%     65.25% # Class of committed instruction. (Count)
system.cpu.commitStats0.committedInstType::SimdSha256Hash2            0      0.00%     65.25% # Class of committed instruction. (Count)
system.cpu.commitStats0.committedInstType::SimdShaSigma2            0      0.00%     65.25% # Class of committed instruction. (Count)
system.cpu.commitStats0.committedInstType::SimdShaSigma3            0      0.00%     65.25% # Class of committed instruction. (Count)
system.cpu.commitStats0.committedInstType::SimdPredAlu            0      0.00%     65.25% # Class of committed instruction. (Count)
system.cpu.commitStats0.committedInstType::Matrix            0      0.00%     65.25% # Class of committed instruction. (Count)
system.cpu.commitStats0.committedInstType::MatrixMov            0      0.00%     65.25% # Class of committed instruction. (Count)
system.cpu.commitStats0.committedInstType::MatrixOP            0      0.00%     65.25% # Class of committed instruction. (Count)
system.cpu.commitStats0.committedInstType::MemRead     16607138     21.52%     86.77% # Class of committed instruction. (Count)
system.cpu.commitStats0.committedInstType::MemWrite      2708261      3.51%     90.28% # Class of committed instruction. (Count)
system.cpu.commitStats0.committedInstType::FloatMemRead      5555887      7.20%     97.47% # Class of committed instruction. (Count)
system.cpu.commitStats0.committedInstType::FloatMemWrite      1949109      2.53%    100.00% # Class of committed instruction. (Count)
system.cpu.commitStats0.committedInstType::IprAccess            0      0.00%    100.00% # Class of committed instruction. (Count)
system.cpu.commitStats0.committedInstType::InstPrefetch            0      0.00%    100.00% # Class of committed instruction. (Count)
system.cpu.commitStats0.committedInstType::SimdUnitStrideLoad            0      0.00%    100.00% # Class of committed instruction. (Count)
system.cpu.commitStats0.committedInstType::SimdUnitStrideStore            0      0.00%    100.00% # Class of committed instruction. (Count)
system.cpu.commitStats0.committedInstType::SimdUnitStrideMaskLoad            0      0.00%    100.00% # Class of committed instruction. (Count)
system.cpu.commitStats0.committedInstType::SimdUnitStrideMaskStore            0      0.00%    100.00% # Class of committed instruction. (Count)
system.cpu.commitStats0.committedInstType::SimdStridedLoad            0      0.00%    100.00% # Class of committed instruction. (Count)
system.cpu.commitStats0.committedInstType::SimdStridedStore            0      0.00%    100.00% # Class of committed instruction. (Count)
system.cpu.commitStats0.committedInstType::SimdIndexedLoad            0      0.00%    100.00% # Class of committed instruction. (Count)
system.cpu.commitStats0.committedInstType::SimdIndexedStore            0      0.00%    100.00% # Class of committed instruction. (Count)
system.cpu.commitStats0.committedInstType::SimdWholeRegisterLoad            0      0.00%    100.00% # Class of committed instruction. (Count)
system.cpu.commitStats0.committedInstType::SimdWholeRegisterStore            0      0.00%    100.00% # Class of committed instruction. (Count)
system.cpu.commitStats0.committedInstType::SimdUnitStrideFaultOnlyFirstLoad            0      0.00%    100.00% # Class of committed instruction. (Count)
system.cpu.commitStats0.committedInstType::SimdUnitStrideSegmentedLoad            0      0.00%    100.00% # Class of committed instruction. (Count)
system.cpu.commitStats0.committedInstType::SimdUnitStrideSegmentedStore            0      0.00%    100.00% # Class of committed instruction. (Count)
system.cpu.commitStats0.committedInstType::SimdExt            0      0.00%    100.00% # Class of committed instruction. (Count)
system.cpu.commitStats0.committedInstType::SimdFloatExt            0      0.00%    100.00% # Class of committed instruction. (Count)
system.cpu.commitStats0.committedInstType::SimdConfig            0      0.00%    100.00% # Class of committed instruction. (Count)
system.cpu.commitStats0.committedInstType::total     77184809                       # Class of committed instruction. (Count)
system.cpu.commitStats0.committedControl::IsControl      3560645                       # Class of control type instructions committed (Count)
system.cpu.commitStats0.committedControl::IsDirectControl      3114246                       # Class of control type instructions committed (Count)
system.cpu.commitStats0.committedControl::IsIndirectControl       446371                       # Class of control type instructions committed (Count)
system.cpu.commitStats0.committedControl::IsCondControl      2670963                       # Class of control type instructions committed (Count)
system.cpu.commitStats0.committedControl::IsUncondControl       889654                       # Class of control type instructions committed (Count)
system.cpu.commitStats0.committedControl::IsCall       323402                       # Class of control type instructions committed (Count)
system.cpu.commitStats0.committedControl::IsReturn       323398                       # Class of control type instructions committed (Count)
system.cpu.dcache.demandHits::cpu.data       26063849                       # number of demand (read+write) hits (Count)
system.cpu.dcache.demandHits::total          26063849                       # number of demand (read+write) hits (Count)
system.cpu.dcache.overallHits::cpu.data      26063849                       # number of overall hits (Count)
system.cpu.dcache.overallHits::total         26063849                       # number of overall hits (Count)
system.cpu.dcache.demandMisses::cpu.data       756280                       # number of demand (read+write) misses (Count)
system.cpu.dcache.demandMisses::total          756280                       # number of demand (read+write) misses (Count)
system.cpu.dcache.overallMisses::cpu.data       756280                       # number of overall misses (Count)
system.cpu.dcache.overallMisses::total         756280                       # number of overall misses (Count)
system.cpu.dcache.demandMissLatency::cpu.data  76585287000                       # number of demand (read+write) miss ticks (Tick)
system.cpu.dcache.demandMissLatency::total  76585287000                       # number of demand (read+write) miss ticks (Tick)
system.cpu.dcache.overallMissLatency::cpu.data  76585287000                       # number of overall miss ticks (Tick)
system.cpu.dcache.overallMissLatency::total  76585287000                       # number of overall miss ticks (Tick)
system.cpu.dcache.demandAccesses::cpu.data     26820129                       # number of demand (read+write) accesses (Count)
system.cpu.dcache.demandAccesses::total      26820129                       # number of demand (read+write) accesses (Count)
system.cpu.dcache.overallAccesses::cpu.data     26820129                       # number of overall (read+write) accesses (Count)
system.cpu.dcache.overallAccesses::total     26820129                       # number of overall (read+write) accesses (Count)
system.cpu.dcache.demandMissRate::cpu.data     0.028198                       # miss rate for demand accesses (Ratio)
system.cpu.dcache.demandMissRate::total      0.028198                       # miss rate for demand accesses (Ratio)
system.cpu.dcache.overallMissRate::cpu.data     0.028198                       # miss rate for overall accesses (Ratio)
system.cpu.dcache.overallMissRate::total     0.028198                       # miss rate for overall accesses (Ratio)
system.cpu.dcache.demandAvgMissLatency::cpu.data 101265.783837                       # average overall miss latency in ticks ((Tick/Count))
system.cpu.dcache.demandAvgMissLatency::total 101265.783837                       # average overall miss latency in ticks ((Tick/Count))
system.cpu.dcache.overallAvgMissLatency::cpu.data 101265.783837                       # average overall miss latency ((Tick/Count))
system.cpu.dcache.overallAvgMissLatency::total 101265.783837                       # average overall miss latency ((Tick/Count))
system.cpu.dcache.blockedCycles::no_mshrs            0                       # number of cycles access was blocked (Cycle)
system.cpu.dcache.blockedCycles::no_targets            0                       # number of cycles access was blocked (Cycle)
system.cpu.dcache.blockedCauses::no_mshrs            0                       # number of times access was blocked (Count)
system.cpu.dcache.blockedCauses::no_targets            0                       # number of times access was blocked (Count)
system.cpu.dcache.avgBlocked::no_mshrs            nan                       # average number of cycles each access was blocked ((Cycle/Count))
system.cpu.dcache.avgBlocked::no_targets          nan                       # average number of cycles each access was blocked ((Cycle/Count))
system.cpu.dcache.writebacks::writebacks        79058                       # number of writebacks (Count)
system.cpu.dcache.writebacks::total             79058                       # number of writebacks (Count)
system.cpu.dcache.demandMshrMisses::cpu.data       756280                       # number of demand (read+write) MSHR misses (Count)
system.cpu.dcache.demandMshrMisses::total       756280                       # number of demand (read+write) MSHR misses (Count)
system.cpu.dcache.overallMshrMisses::cpu.data       756280                       # number of overall MSHR misses (Count)
system.cpu.dcache.overallMshrMisses::total       756280                       # number of overall MSHR misses (Count)
system.cpu.dcache.demandMshrMissLatency::cpu.data  75072727000                       # number of demand (read+write) MSHR miss ticks (Tick)
system.cpu.dcache.demandMshrMissLatency::total  75072727000                       # number of demand (read+write) MSHR miss ticks (Tick)
system.cpu.dcache.overallMshrMissLatency::cpu.data  75072727000                       # number of overall MSHR miss ticks (Tick)
system.cpu.dcache.overallMshrMissLatency::total  75072727000                       # number of overall MSHR miss ticks (Tick)
system.cpu.dcache.demandMshrMissRate::cpu.data     0.028198                       # mshr miss ratio for demand accesses (Ratio)
system.cpu.dcache.demandMshrMissRate::total     0.028198                       # mshr miss ratio for demand accesses (Ratio)
system.cpu.dcache.overallMshrMissRate::cpu.data     0.028198                       # mshr miss ratio for overall accesses (Ratio)
system.cpu.dcache.overallMshrMissRate::total     0.028198                       # mshr miss ratio for overall accesses (Ratio)
system.cpu.dcache.demandAvgMshrMissLatency::cpu.data 99265.783837                       # average overall mshr miss latency ((Tick/Count))
system.cpu.dcache.demandAvgMshrMissLatency::total 99265.783837                       # average overall mshr miss latency ((Tick/Count))
system.cpu.dcache.overallAvgMshrMissLatency::cpu.data 99265.783837                       # average overall mshr miss latency ((Tick/Count))
system.cpu.dcache.overallAvgMshrMissLatency::total 99265.783837                       # average overall mshr miss latency ((Tick/Count))
system.cpu.dcache.replacements                 756024                       # number of replacements (Count)
system.cpu.dcache.ReadReq.hits::cpu.data     21421590                       # number of ReadReq hits (Count)
system.cpu.dcache.ReadReq.hits::total        21421590                       # number of ReadReq hits (Count)
system.cpu.dcache.ReadReq.misses::cpu.data       741198                       # number of ReadReq misses (Count)
system.cpu.dcache.ReadReq.misses::total        741198                       # number of ReadReq misses (Count)
system.cpu.dcache.ReadReq.missLatency::cpu.data  75046649000                       # number of ReadReq miss ticks (Tick)
system.cpu.dcache.ReadReq.missLatency::total  75046649000                       # number of ReadReq miss ticks (Tick)
system.cpu.dcache.ReadReq.accesses::cpu.data     22162788                       # number of ReadReq accesses(hits+misses) (Count)
system.cpu.dcache.ReadReq.accesses::total     22162788                       # number of ReadReq accesses(hits+misses) (Count)
system.cpu.dcache.ReadReq.missRate::cpu.data     0.033443                       # miss rate for ReadReq accesses (Ratio)
system.cpu.dcache.ReadReq.missRate::total     0.033443                       # miss rate for ReadReq accesses (Ratio)
system.cpu.dcache.ReadReq.avgMissLatency::cpu.data 101250.474232                       # average ReadReq miss latency ((Tick/Count))
system.cpu.dcache.ReadReq.avgMissLatency::total 101250.474232                       # average ReadReq miss latency ((Tick/Count))
system.cpu.dcache.ReadReq.mshrMisses::cpu.data       741198                       # number of ReadReq MSHR misses (Count)
system.cpu.dcache.ReadReq.mshrMisses::total       741198                       # number of ReadReq MSHR misses (Count)
system.cpu.dcache.ReadReq.mshrMissLatency::cpu.data  73564253000                       # number of ReadReq MSHR miss ticks (Tick)
system.cpu.dcache.ReadReq.mshrMissLatency::total  73564253000                       # number of ReadReq MSHR miss ticks (Tick)
system.cpu.dcache.ReadReq.mshrMissRate::cpu.data     0.033443                       # mshr miss rate for ReadReq accesses (Ratio)
system.cpu.dcache.ReadReq.mshrMissRate::total     0.033443                       # mshr miss rate for ReadReq accesses (Ratio)
system.cpu.dcache.ReadReq.avgMshrMissLatency::cpu.data 99250.474232                       # average ReadReq mshr miss latency ((Tick/Count))
system.cpu.dcache.ReadReq.avgMshrMissLatency::total 99250.474232                       # average ReadReq mshr miss latency ((Tick/Count))
system.cpu.dcache.WriteReq.hits::cpu.data      4642259                       # number of WriteReq hits (Count)
system.cpu.dcache.WriteReq.hits::total        4642259                       # number of WriteReq hits (Count)
system.cpu.dcache.WriteReq.misses::cpu.data        15082                       # number of WriteReq misses (Count)
system.cpu.dcache.WriteReq.misses::total        15082                       # number of WriteReq misses (Count)
system.cpu.dcache.WriteReq.missLatency::cpu.data   1538638000                       # number of WriteReq miss ticks (Tick)
system.cpu.dcache.WriteReq.missLatency::total   1538638000                       # number of WriteReq miss ticks (Tick)
system.cpu.dcache.WriteReq.accesses::cpu.data      4657341                       # number of WriteReq accesses(hits+misses) (Count)
system.cpu.dcache.WriteReq.accesses::total      4657341                       # number of WriteReq accesses(hits+misses) (Count)
system.cpu.dcache.WriteReq.missRate::cpu.data     0.003238                       # miss rate for WriteReq accesses (Ratio)
system.cpu.dcache.WriteReq.missRate::total     0.003238                       # miss rate for WriteReq accesses (Ratio)
system.cpu.dcache.WriteReq.avgMissLatency::cpu.data 102018.167352                       # average WriteReq miss latency ((Tick/Count))
system.cpu.dcache.WriteReq.avgMissLatency::total 102018.167352                       # average WriteReq miss latency ((Tick/Count))
system.cpu.dcache.WriteReq.mshrMisses::cpu.data        15082                       # number of WriteReq MSHR misses (Count)
system.cpu.dcache.WriteReq.mshrMisses::total        15082                       # number of WriteReq MSHR misses (Count)
system.cpu.dcache.WriteReq.mshrMissLatency::cpu.data   1508474000                       # number of WriteReq MSHR miss ticks (Tick)
system.cpu.dcache.WriteReq.mshrMissLatency::total   1508474000                       # number of WriteReq MSHR miss ticks (Tick)
system.cpu.dcache.WriteReq.mshrMissRate::cpu.data     0.003238                       # mshr miss rate for WriteReq accesses (Ratio)
system.cpu.dcache.WriteReq.mshrMissRate::total     0.003238                       # mshr miss rate for WriteReq accesses (Ratio)
system.cpu.dcache.WriteReq.avgMshrMissLatency::cpu.data 100018.167352                       # average WriteReq mshr miss latency ((Tick/Count))
system.cpu.dcache.WriteReq.avgMshrMissLatency::total 100018.167352                       # average WriteReq mshr miss latency ((Tick/Count))
system.cpu.dcache.power_state.pwrStateResidencyTicks::UNDEFINED 274533334000                       # Cumulative time (in ticks) in various power states (Tick)
system.cpu.dcache.tags.tagsInUse           255.964060                       # Average ticks per tags in use ((Tick/Count))
system.cpu.dcache.tags.totalRefs             26820129                       # Total number of references to valid blocks. (Count)
system.cpu.dcache.tags.sampledRefs             756280                       # Sample count of references to valid blocks. (Count)
system.cpu.dcache.tags.avgRefs              35.463227                       # Average number of references to valid blocks. ((Count/Count))
system.cpu.dcache.tags.warmupTick              218000                       # The tick when the warmup percentage was hit. (Tick)
system.cpu.dcache.tags.occupancies::cpu.data   255.964060                       # Average occupied blocks per tick, per requestor ((Count/Tick))
system.cpu.dcache.tags.avgOccs::cpu.data     0.999860                       # Average percentage of cache occupancy ((Ratio/Tick))
system.cpu.dcache.tags.avgOccs::total        0.999860                       # Average percentage of cache occupancy ((Ratio/Tick))
system.cpu.dcache.tags.occupanciesTaskId::1024          256                       # Occupied blocks per task id (Count)
system.cpu.dcache.tags.ageTaskId_1024::0           23                       # Occupied blocks per task id, per block age (Count)
system.cpu.dcache.tags.ageTaskId_1024::1          126                       # Occupied blocks per task id, per block age (Count)
system.cpu.dcache.tags.ageTaskId_1024::2           91                       # Occupied blocks per task id, per block age (Count)
system.cpu.dcache.tags.ageTaskId_1024::3           11                       # Occupied blocks per task id, per block age (Count)
system.cpu.dcache.tags.ageTaskId_1024::4            5                       # Occupied blocks per task id, per block age (Count)
system.cpu.dcache.tags.ratioOccsTaskId::1024            1                       # Ratio of occupied blocks and all blocks, per task id (Ratio)
system.cpu.dcache.tags.tagAccesses          215317312                       # Number of tag accesses (Count)
system.cpu.dcache.tags.dataAccesses         215317312                       # Number of data accesses (Count)
system.cpu.dcache.tags.power_state.pwrStateResidencyTicks::UNDEFINED 274533334000                       # Cumulative time (in ticks) in various power states (Tick)
system.cpu.exec_context.thread_0.numMatAluAccesses            0                       # Number of matrix alu accesses (Count)
system.cpu.exec_context.thread_0.numCallsReturns       646800                       # Number of times a function call or return occured (Count)
system.cpu.exec_context.thread_0.numMatInsts            0                       # Number of matrix instructions (Count)
system.cpu.exec_context.thread_0.numIdleCycles     0.001000                       # Number of idle cycles (Cycle)
system.cpu.exec_context.thread_0.numBusyCycles 274533333.999000                       # Number of busy cycles (Cycle)
system.cpu.exec_context.thread_0.notIdleFraction     1.000000                       # Percentage of non-idle cycles (Ratio)
system.cpu.exec_context.thread_0.idleFraction     0.000000                       # Percentage of idle cycles (Ratio)
system.cpu.executeStats0.numInsts                   0                       # Number of executed instructions (Count)
system.cpu.executeStats0.numNop                     0                       # Number of nop insts executed (Count)
system.cpu.executeStats0.numBranches                0                       # Number of branches executed (Count)
system.cpu.executeStats0.numLoadInsts               0                       # Number of load instructions executed (Count)
system.cpu.executeStats0.numStoreInsts       26820395                       # Number of stores executed (Count)
system.cpu.executeStats0.instRate                   0                       # Inst execution rate ((Count/Cycle))
system.cpu.executeStats0.numFpAluAccesses     18462644                       # Number of float alu accesses (Count)
system.cpu.executeStats0.numFpRegReads       16977026                       # Number of times the floating registers were read (Count)
system.cpu.executeStats0.numFpRegWrites      16505943                       # Number of times the floating registers were written (Count)
system.cpu.executeStats0.numIntAluAccesses     66103740                       # Number of integer alu accesses (Count)
system.cpu.executeStats0.numIntRegReads      78887936                       # Number of times the integer registers were read (Count)
system.cpu.executeStats0.numIntRegWrites     49358665                       # Number of times the integer registers were written (Count)
system.cpu.executeStats0.numMemRefs          26820395                       # Number of memory refs (Count)
system.cpu.executeStats0.numMiscRegReads     34075048                       # Number of times the Misc registers were read (Count)
system.cpu.executeStats0.numMiscRegWrites           18                       # Number of times the Misc registers were written (Count)
system.cpu.executeStats0.numVecAluAccesses            0                       # Number of vector alu accesses (Count)
system.cpu.executeStats0.numDiscardedOps            0                       # Number of ops (including micro ops) which were discarded before commit (Count)
system.cpu.fetchStats0.numInsts              51550818                       # Number of instructions fetched (thread level) (Count)
system.cpu.fetchStats0.numOps                77184809                       # Number of ops (including micro ops) fetched (thread level) (Count)
system.cpu.fetchStats0.fetchRate             0.187776                       # Number of inst fetches per cycle ((Count/Cycle))
system.cpu.fetchStats0.numBranches            3560645                       # Number of branches fetched (Count)
system.cpu.fetchStats0.branchRate            0.012970                       # Number of branch fetches per cycle (Ratio)
system.cpu.fetchStats0.numFetchSuspends             0                       # Number of times Execute suspended instruction fetching (Count)
system.cpu.icache.demandHits::cpu.inst       72811890                       # number of demand (read+write) hits (Count)
system.cpu.icache.demandHits::total          72811890                       # number of demand (read+write) hits (Count)
system.cpu.icache.overallHits::cpu.inst      72811890                       # number of overall hits (Count)
system.cpu.icache.overallHits::total         72811890                       # number of overall hits (Count)
system.cpu.icache.demandMisses::cpu.inst         1921                       # number of demand (read+write) misses (Count)
system.cpu.icache.demandMisses::total            1921                       # number of demand (read+write) misses (Count)
system.cpu.icache.overallMisses::cpu.inst         1921                       # number of overall misses (Count)
system.cpu.icache.overallMisses::total           1921                       # number of overall misses (Count)
system.cpu.icache.demandMissLatency::cpu.inst    196926000                       # number of demand (read+write) miss ticks (Tick)
system.cpu.icache.demandMissLatency::total    196926000                       # number of demand (read+write) miss ticks (Tick)
system.cpu.icache.overallMissLatency::cpu.inst    196926000                       # number of overall miss ticks (Tick)
system.cpu.icache.overallMissLatency::total    196926000                       # number of overall miss ticks (Tick)
system.cpu.icache.demandAccesses::cpu.inst     72813811                       # number of demand (read+write) accesses (Count)
system.cpu.icache.demandAccesses::total      72813811                       # number of demand (read+write) accesses (Count)
system.cpu.icache.overallAccesses::cpu.inst     72813811                       # number of overall (read+write) accesses (Count)
system.cpu.icache.overallAccesses::total     72813811                       # number of overall (read+write) accesses (Count)
system.cpu.icache.demandMissRate::cpu.inst     0.000026                       # miss rate for demand accesses (Ratio)
system.cpu.icache.demandMissRate::total      0.000026                       # miss rate for demand accesses (Ratio)
system.cpu.icache.overallMissRate::cpu.inst     0.000026                       # miss rate for overall accesses (Ratio)
system.cpu.icache.overallMissRate::total     0.000026                       # miss rate for overall accesses (Ratio)
system.cpu.icache.demandAvgMissLatency::cpu.inst 102512.233212                       # average overall miss latency in ticks ((Tick/Count))
system.cpu.icache.demandAvgMissLatency::total 102512.233212                       # average overall miss latency in ticks ((Tick/Count))
system.cpu.icache.overallAvgMissLatency::cpu.inst 102512.233212                       # average overall miss latency ((Tick/Count))
system.cpu.icache.overallAvgMissLatency::total 102512.233212                       # average overall miss latency ((Tick/Count))
system.cpu.icache.blockedCycles::no_mshrs            0                       # number of cycles access was blocked (Cycle)
system.cpu.icache.blockedCycles::no_targets            0                       # number of cycles access was blocked (Cycle)
system.cpu.icache.blockedCauses::no_mshrs            0                       # number of times access was blocked (Count)
system.cpu.icache.blockedCauses::no_targets            0                       # number of times access was blocked (Count)
system.cpu.icache.avgBlocked::no_mshrs            nan                       # average number of cycles each access was blocked ((Cycle/Count))
system.cpu.icache.avgBlocked::no_targets          nan                       # average number of cycles each access was blocked ((Cycle/Count))
system.cpu.icache.demandMshrMisses::cpu.inst         1921                       # number of demand (read+write) MSHR misses (Count)
system.cpu.icache.demandMshrMisses::total         1921                       # number of demand (read+write) MSHR misses (Count)
system.cpu.icache.overallMshrMisses::cpu.inst         1921                       # number of overall MSHR misses (Count)
system.cpu.icache.overallMshrMisses::total         1921                       # number of overall MSHR misses (Count)
system.cpu.icache.demandMshrMissLatency::cpu.inst    193084000                       # number of demand (read+write) MSHR miss ticks (Tick)
system.cpu.icache.demandMshrMissLatency::total    193084000                       # number of demand (read+write) MSHR miss ticks (Tick)
system.cpu.icache.overallMshrMissLatency::cpu.inst    193084000                       # number of overall MSHR miss ticks (Tick)
system.cpu.icache.overallMshrMissLatency::total    193084000                       # number of overall MSHR miss ticks (Tick)
system.cpu.icache.demandMshrMissRate::cpu.inst     0.000026                       # mshr miss ratio for demand accesses (Ratio)
system.cpu.icache.demandMshrMissRate::total     0.000026                       # mshr miss ratio for demand accesses (Ratio)
system.cpu.icache.overallMshrMissRate::cpu.inst     0.000026                       # mshr miss ratio for overall accesses (Ratio)
system.cpu.icache.overallMshrMissRate::total     0.000026                       # mshr miss ratio for overall accesses (Ratio)
system.cpu.icache.demandAvgMshrMissLatency::cpu.inst 100512.233212                       # average overall mshr miss latency ((Tick/Count))
system.cpu.icache.demandAvgMshrMissLatency::total 100512.233212                       # average overall mshr miss latency ((Tick/Count))
system.cpu.icache.overallAvgMshrMissLatency::cpu.inst 100512.233212                       # average overall mshr miss latency ((Tick/Count))
system.cpu.icache.overallAvgMshrMissLatency::total 100512.233212                       # average overall mshr miss latency ((Tick/Count))
system.cpu.icache.replacements                   1665                       # number of replacements (Count)
system.cpu.icache.ReadReq.hits::cpu.inst     72811890                       # number of ReadReq hits (Count)
system.cpu.icache.ReadReq.hits::total        72811890                       # number of ReadReq hits (Count)
system.cpu.icache.ReadReq.misses::cpu.inst         1921                       # number of ReadReq misses (Count)
system.cpu.icache.ReadReq.misses::total          1921                       # number of ReadReq misses (Count)
system.cpu.icache.ReadReq.missLatency::cpu.inst    196926000                       # number of ReadReq miss ticks (Tick)
system.cpu.icache.ReadReq.missLatency::total    196926000                       # number of ReadReq miss ticks (Tick)
system.cpu.icache.ReadReq.accesses::cpu.inst     72813811                       # number of ReadReq accesses(hits+misses) (Count)
system.cpu.icache.ReadReq.accesses::total     72813811                       # number of ReadReq accesses(hits+misses) (Count)
system.cpu.icache.ReadReq.missRate::cpu.inst     0.000026                       # miss rate for ReadReq accesses (Ratio)
system.cpu.icache.ReadReq.missRate::total     0.000026                       # miss rate for ReadReq accesses (Ratio)
system.cpu.icache.ReadReq.avgMissLatency::cpu.inst 102512.233212                       # average ReadReq miss latency ((Tick/Count))
system.cpu.icache.ReadReq.avgMissLatency::total 102512.233212                       # average ReadReq miss latency ((Tick/Count))
system.cpu.icache.ReadReq.mshrMisses::cpu.inst         1921                       # number of ReadReq MSHR misses (Count)
system.cpu.icache.ReadReq.mshrMisses::total         1921                       # number of ReadReq MSHR misses (Count)
system.cpu.icache.ReadReq.mshrMissLatency::cpu.inst    193084000                       # number of ReadReq MSHR miss ticks (Tick)
system.cpu.icache.ReadReq.mshrMissLatency::total    193084000                       # number of ReadReq MSHR miss ticks (Tick)
system.cpu.icache.ReadReq.mshrMissRate::cpu.inst     0.000026                       # mshr miss rate for ReadReq accesses (Ratio)
system.cpu.icache.ReadReq.mshrMissRate::total     0.000026                       # mshr miss rate for ReadReq accesses (Ratio)
system.cpu.icache.ReadReq.avgMshrMissLatency::cpu.inst 100512.233212                       # average ReadReq mshr miss latency ((Tick/Count))
system.cpu.icache.ReadReq.avgMshrMissLatency::total 100512.233212                       # average ReadReq mshr miss latency ((Tick/Count))
system.cpu.icache.power_state.pwrStateResidencyTicks::UNDEFINED 274533334000                       # Cumulative time (in ticks) in various power states (Tick)
system.cpu.icache.tags.tagsInUse           255.964653                       # Average ticks per tags in use ((Tick/Count))
system.cpu.icache.tags.totalRefs             72813811                       # Total number of references to valid blocks. (Count)
system.cpu.icache.tags.sampledRefs               1921                       # Sample count of references to valid blocks. (Count)
system.cpu.icache.tags.avgRefs           37904.118168                       # Average number of references to valid blocks. ((Count/Count))
system.cpu.icache.tags.warmupTick              107000                       # The tick when the warmup percentage was hit. (Tick)
system.cpu.icache.tags.occupancies::cpu.inst   255.964653                       # Average occupied blocks per tick, per requestor ((Count/Tick))
system.cpu.icache.tags.avgOccs::cpu.inst     0.999862                       # Average percentage of cache occupancy ((Ratio/Tick))
system.cpu.icache.tags.avgOccs::total        0.999862                       # Average percentage of cache occupancy ((Ratio/Tick))
system.cpu.icache.tags.occupanciesTaskId::1024          256                       # Occupied blocks per task id (Count)
system.cpu.icache.tags.ageTaskId_1024::0           51                       # Occupied blocks per task id, per block age (Count)
system.cpu.icache.tags.ageTaskId_1024::1          142                       # Occupied blocks per task id, per block age (Count)
system.cpu.icache.tags.ageTaskId_1024::2            1                       # Occupied blocks per task id, per block age (Count)
system.cpu.icache.tags.ageTaskId_1024::4           62                       # Occupied blocks per task id, per block age (Count)
system.cpu.icache.tags.ratioOccsTaskId::1024            1                       # Ratio of occupied blocks and all blocks, per task id (Ratio)
system.cpu.icache.tags.tagAccesses          582512409                       # Number of tag accesses (Count)
system.cpu.icache.tags.dataAccesses         582512409                       # Number of data accesses (Count)
system.cpu.icache.tags.power_state.pwrStateResidencyTicks::UNDEFINED 274533334000                       # Cumulative time (in ticks) in various power states (Tick)
system.cpu.interrupts.clk_domain.clock          16000                       # Clock period in ticks (Tick)
system.cpu.mmu.dtb.rdAccesses                22163049                       # TLB accesses on read requests (Count)
system.cpu.mmu.dtb.wrAccesses                 4657371                       # TLB accesses on write requests (Count)
system.cpu.mmu.dtb.rdMisses                    160287                       # TLB misses on read requests (Count)
system.cpu.mmu.dtb.wrMisses                       911                       # TLB misses on write requests (Count)
system.cpu.mmu.dtb.walker.power_state.pwrStateResidencyTicks::UNDEFINED 274533334000                       # Cumulative time (in ticks) in various power states (Tick)
system.cpu.mmu.itb.rdAccesses                       0                       # TLB accesses on read requests (Count)
system.cpu.mmu.itb.wrAccesses                72813881                       # TLB accesses on write requests (Count)
system.cpu.mmu.itb.rdMisses                         0                       # TLB misses on read requests (Count)
system.cpu.mmu.itb.wrMisses                       241                       # TLB misses on write requests (Count)
system.cpu.mmu.itb.walker.power_state.pwrStateResidencyTicks::UNDEFINED 274533334000                       # Cumulative time (in ticks) in various power states (Tick)
system.cpu.power_state.pwrStateResidencyTicks::ON 274533334000                       # Cumulative time (in ticks) in various power states (Tick)
system.cpu.thread_0.numInsts                        0                       # Number of Instructions committed (Count)
system.cpu.thread_0.numOps                          0                       # Number of Ops committed (Count)
system.cpu.thread_0.numMemRefs                      0                       # Number of Memory References (Count)
system.cpu.workload.numSyscalls                    76                       # Number of system calls (Count)
system.l2bus.transDist::ReadResp               743119                       # Transaction distribution (Count)
system.l2bus.transDist::WritebackDirty         158012                       # Transaction distribution (Count)
system.l2bus.transDist::CleanEvict            1390046                       # Transaction distribution (Count)
system.l2bus.transDist::ReadExReq               15082                       # Transaction distribution (Count)
system.l2bus.transDist::ReadExResp              15082                       # Transaction distribution (Count)
system.l2bus.transDist::ReadSharedReq          743119                       # Transaction distribution (Count)
system.l2bus.pktCount_system.cpu.icache.mem_side_port::system.l2cache.cpu_side_port         5507                       # Packet count per connected requestor and responder (Count)
system.l2bus.pktCount_system.cpu.dcache.mem_side_port::system.l2cache.cpu_side_port      2268584                       # Packet count per connected requestor and responder (Count)
system.l2bus.pktCount::total                  2274091                       # Packet count per connected requestor and responder (Count)
system.l2bus.pktSize_system.cpu.icache.mem_side_port::system.l2cache.cpu_side_port       122944                       # Cumulative packet size per connected requestor and responder (Byte)
system.l2bus.pktSize_system.cpu.dcache.mem_side_port::system.l2cache.cpu_side_port     53461632                       # Cumulative packet size per connected requestor and responder (Byte)
system.l2bus.pktSize::total                  53584576                       # Cumulative packet size per connected requestor and responder (Byte)
system.l2bus.snoops                            790369                       # Total snoops (Count)
system.l2bus.snoopTraffic                     5053056                       # Total snoop traffic (Byte)
system.l2bus.snoopFanout::samples             1548570                       # Request fanout histogram (Count)
system.l2bus.snoopFanout::mean               0.094254                       # Request fanout histogram (Count)
system.l2bus.snoopFanout::stdev              0.292182                       # Request fanout histogram (Count)
system.l2bus.snoopFanout::underflows                0      0.00%      0.00% # Request fanout histogram (Count)
system.l2bus.snoopFanout::0                   1402611     90.57%     90.57% # Request fanout histogram (Count)
system.l2bus.snoopFanout::1                    145959      9.43%    100.00% # Request fanout histogram (Count)
system.l2bus.snoopFanout::2                         0      0.00%    100.00% # Request fanout histogram (Count)
system.l2bus.snoopFanout::overflows                 0      0.00%    100.00% # Request fanout histogram (Count)
system.l2bus.snoopFanout::min_value                 0                       # Request fanout histogram (Count)
system.l2bus.snoopFanout::max_value                 1                       # Request fanout histogram (Count)
system.l2bus.snoopFanout::total               1548570                       # Request fanout histogram (Count)
system.l2bus.power_state.pwrStateResidencyTicks::UNDEFINED 274533334000                       # Cumulative time (in ticks) in various power states (Tick)
system.l2bus.reqLayer0.occupancy           1674006000                       # Layer occupancy (ticks) (Tick)
system.l2bus.reqLayer0.utilization                0.0                       # Layer utilization (Ratio)
system.l2bus.respLayer0.occupancy             5763000                       # Layer occupancy (ticks) (Tick)
system.l2bus.respLayer0.utilization               0.0                       # Layer utilization (Ratio)
system.l2bus.respLayer1.occupancy          2268840000                       # Layer occupancy (ticks) (Tick)
system.l2bus.respLayer1.utilization               0.0                       # Layer utilization (Ratio)
system.l2bus.snoop_filter.totRequests         1515890                       # Total number of requests made to the snoop filter. (Count)
system.l2bus.snoop_filter.hitSingleRequests       757689                       # Number of requests hitting in the snoop filter with a single holder of the requested data. (Count)
system.l2bus.snoop_filter.hitMultiRequests            0                       # Number of requests hitting in the snoop filter with multiple (>1) holders of the requested data. (Count)
system.l2bus.snoop_filter.totSnoops            145959                       # Total number of snoops made to the snoop filter. (Count)
system.l2bus.snoop_filter.hitSingleSnoops       145959                       # Number of snoops hitting in the snoop filter with a single holder of the requested data. (Count)
system.l2bus.snoop_filter.hitMultiSnoops            0                       # Number of snoops hitting in the snoop filter with multiple (>1) holders of the requested data. (Count)
system.l2cache.demandHits::cpu.inst                24                       # number of demand (read+write) hits (Count)
system.l2cache.demandHits::cpu.data               287                       # number of demand (read+write) hits (Count)
system.l2cache.demandHits::total                  311                       # number of demand (read+write) hits (Count)
system.l2cache.overallHits::cpu.inst               24                       # number of overall hits (Count)
system.l2cache.overallHits::cpu.data              287                       # number of overall hits (Count)
system.l2cache.overallHits::total                 311                       # number of overall hits (Count)
system.l2cache.demandMisses::cpu.inst            1897                       # number of demand (read+write) misses (Count)
system.l2cache.demandMisses::cpu.data          755993                       # number of demand (read+write) misses (Count)
system.l2cache.demandMisses::total             757890                       # number of demand (read+write) misses (Count)
system.l2cache.overallMisses::cpu.inst           1897                       # number of overall misses (Count)
system.l2cache.overallMisses::cpu.data         755993                       # number of overall misses (Count)
system.l2cache.overallMisses::total            757890                       # number of overall misses (Count)
system.l2cache.demandMissLatency::cpu.inst    186797000                       # number of demand (read+write) miss ticks (Tick)
system.l2cache.demandMissLatency::cpu.data  72797854000                       # number of demand (read+write) miss ticks (Tick)
system.l2cache.demandMissLatency::total   72984651000                       # number of demand (read+write) miss ticks (Tick)
system.l2cache.overallMissLatency::cpu.inst    186797000                       # number of overall miss ticks (Tick)
system.l2cache.overallMissLatency::cpu.data  72797854000                       # number of overall miss ticks (Tick)
system.l2cache.overallMissLatency::total  72984651000                       # number of overall miss ticks (Tick)
system.l2cache.demandAccesses::cpu.inst          1921                       # number of demand (read+write) accesses (Count)
system.l2cache.demandAccesses::cpu.data        756280                       # number of demand (read+write) accesses (Count)
system.l2cache.demandAccesses::total           758201                       # number of demand (read+write) accesses (Count)
system.l2cache.overallAccesses::cpu.inst         1921                       # number of overall (read+write) accesses (Count)
system.l2cache.overallAccesses::cpu.data       756280                       # number of overall (read+write) accesses (Count)
system.l2cache.overallAccesses::total          758201                       # number of overall (read+write) accesses (Count)
system.l2cache.demandMissRate::cpu.inst      0.987507                       # miss rate for demand accesses (Ratio)
system.l2cache.demandMissRate::cpu.data      0.999621                       # miss rate for demand accesses (Ratio)
system.l2cache.demandMissRate::total         0.999590                       # miss rate for demand accesses (Ratio)
system.l2cache.overallMissRate::cpu.inst     0.987507                       # miss rate for overall accesses (Ratio)
system.l2cache.overallMissRate::cpu.data     0.999621                       # miss rate for overall accesses (Ratio)
system.l2cache.overallMissRate::total        0.999590                       # miss rate for overall accesses (Ratio)
system.l2cache.demandAvgMissLatency::cpu.inst 98469.688983                       # average overall miss latency in ticks ((Tick/Count))
system.l2cache.demandAvgMissLatency::cpu.data 96294.349286                       # average overall miss latency in ticks ((Tick/Count))
system.l2cache.demandAvgMissLatency::total 96299.794165                       # average overall miss latency in ticks ((Tick/Count))
system.l2cache.overallAvgMissLatency::cpu.inst 98469.688983                       # average overall miss latency ((Tick/Count))
system.l2cache.overallAvgMissLatency::cpu.data 96294.349286                       # average overall miss latency ((Tick/Count))
system.l2cache.overallAvgMissLatency::total 96299.794165                       # average overall miss latency ((Tick/Count))
system.l2cache.blockedCycles::no_mshrs              0                       # number of cycles access was blocked (Cycle)
system.l2cache.blockedCycles::no_targets            0                       # number of cycles access was blocked (Cycle)
system.l2cache.blockedCauses::no_mshrs              0                       # number of times access was blocked (Count)
system.l2cache.blockedCauses::no_targets            0                       # number of times access was blocked (Count)
system.l2cache.avgBlocked::no_mshrs               nan                       # average number of cycles each access was blocked ((Cycle/Count))
system.l2cache.avgBlocked::no_targets             nan                       # average number of cycles each access was blocked ((Cycle/Count))
system.l2cache.writebacks::writebacks           78954                       # number of writebacks (Count)
system.l2cache.writebacks::total                78954                       # number of writebacks (Count)
system.l2cache.demandMshrMisses::cpu.inst         1897                       # number of demand (read+write) MSHR misses (Count)
system.l2cache.demandMshrMisses::cpu.data       755993                       # number of demand (read+write) MSHR misses (Count)
system.l2cache.demandMshrMisses::total         757890                       # number of demand (read+write) MSHR misses (Count)
system.l2cache.overallMshrMisses::cpu.inst         1897                       # number of overall MSHR misses (Count)
system.l2cache.overallMshrMisses::cpu.data       755993                       # number of overall MSHR misses (Count)
system.l2cache.overallMshrMisses::total        757890                       # number of overall MSHR misses (Count)
system.l2cache.demandMshrMissLatency::cpu.inst    148857000                       # number of demand (read+write) MSHR miss ticks (Tick)
system.l2cache.demandMshrMissLatency::cpu.data  57677994000                       # number of demand (read+write) MSHR miss ticks (Tick)
system.l2cache.demandMshrMissLatency::total  57826851000                       # number of demand (read+write) MSHR miss ticks (Tick)
system.l2cache.overallMshrMissLatency::cpu.inst    148857000                       # number of overall MSHR miss ticks (Tick)
system.l2cache.overallMshrMissLatency::cpu.data  57677994000                       # number of overall MSHR miss ticks (Tick)
system.l2cache.overallMshrMissLatency::total  57826851000                       # number of overall MSHR miss ticks (Tick)
system.l2cache.demandMshrMissRate::cpu.inst     0.987507                       # mshr miss ratio for demand accesses (Ratio)
system.l2cache.demandMshrMissRate::cpu.data     0.999621                       # mshr miss ratio for demand accesses (Ratio)
system.l2cache.demandMshrMissRate::total     0.999590                       # mshr miss ratio for demand accesses (Ratio)
system.l2cache.overallMshrMissRate::cpu.inst     0.987507                       # mshr miss ratio for overall accesses (Ratio)
system.l2cache.overallMshrMissRate::cpu.data     0.999621                       # mshr miss ratio for overall accesses (Ratio)
system.l2cache.overallMshrMissRate::total     0.999590                       # mshr miss ratio for overall accesses (Ratio)
system.l2cache.demandAvgMshrMissLatency::cpu.inst 78469.688983                       # average overall mshr miss latency ((Tick/Count))
system.l2cache.demandAvgMshrMissLatency::cpu.data 76294.349286                       # average overall mshr miss latency ((Tick/Count))
system.l2cache.demandAvgMshrMissLatency::total 76299.794165                       # average overall mshr miss latency ((Tick/Count))
system.l2cache.overallAvgMshrMissLatency::cpu.inst 78469.688983                       # average overall mshr miss latency ((Tick/Count))
system.l2cache.overallAvgMshrMissLatency::cpu.data 76294.349286                       # average overall mshr miss latency ((Tick/Count))
system.l2cache.overallAvgMshrMissLatency::total 76299.794165                       # average overall mshr miss latency ((Tick/Count))
system.l2cache.replacements                    790369                       # number of replacements (Count)
system.l2cache.CleanEvict.mshrMisses::writebacks       112817                       # number of CleanEvict MSHR misses (Count)
system.l2cache.CleanEvict.mshrMisses::total       112817                       # number of CleanEvict MSHR misses (Count)
system.l2cache.CleanEvict.mshrMissRate::writebacks          inf                       # mshr miss rate for CleanEvict accesses (Ratio)
system.l2cache.CleanEvict.mshrMissRate::total          inf                       # mshr miss rate for CleanEvict accesses (Ratio)
system.l2cache.ReadExReq.hits::cpu.data            62                       # number of ReadExReq hits (Count)
system.l2cache.ReadExReq.hits::total               62                       # number of ReadExReq hits (Count)
system.l2cache.ReadExReq.misses::cpu.data        15020                       # number of ReadExReq misses (Count)
system.l2cache.ReadExReq.misses::total          15020                       # number of ReadExReq misses (Count)
system.l2cache.ReadExReq.missLatency::cpu.data   1461925000                       # number of ReadExReq miss ticks (Tick)
system.l2cache.ReadExReq.missLatency::total   1461925000                       # number of ReadExReq miss ticks (Tick)
system.l2cache.ReadExReq.accesses::cpu.data        15082                       # number of ReadExReq accesses(hits+misses) (Count)
system.l2cache.ReadExReq.accesses::total        15082                       # number of ReadExReq accesses(hits+misses) (Count)
system.l2cache.ReadExReq.missRate::cpu.data     0.995889                       # miss rate for ReadExReq accesses (Ratio)
system.l2cache.ReadExReq.missRate::total     0.995889                       # miss rate for ReadExReq accesses (Ratio)
system.l2cache.ReadExReq.avgMissLatency::cpu.data 97331.890812                       # average ReadExReq miss latency ((Tick/Count))
system.l2cache.ReadExReq.avgMissLatency::total 97331.890812                       # average ReadExReq miss latency ((Tick/Count))
system.l2cache.ReadExReq.mshrMisses::cpu.data        15020                       # number of ReadExReq MSHR misses (Count)
system.l2cache.ReadExReq.mshrMisses::total        15020                       # number of ReadExReq MSHR misses (Count)
system.l2cache.ReadExReq.mshrMissLatency::cpu.data   1161525000                       # number of ReadExReq MSHR miss ticks (Tick)
system.l2cache.ReadExReq.mshrMissLatency::total   1161525000                       # number of ReadExReq MSHR miss ticks (Tick)
system.l2cache.ReadExReq.mshrMissRate::cpu.data     0.995889                       # mshr miss rate for ReadExReq accesses (Ratio)
system.l2cache.ReadExReq.mshrMissRate::total     0.995889                       # mshr miss rate for ReadExReq accesses (Ratio)
system.l2cache.ReadExReq.avgMshrMissLatency::cpu.data 77331.890812                       # average ReadExReq mshr miss latency ((Tick/Count))
system.l2cache.ReadExReq.avgMshrMissLatency::total 77331.890812                       # average ReadExReq mshr miss latency ((Tick/Count))
system.l2cache.ReadSharedReq.hits::cpu.inst           24                       # number of ReadSharedReq hits (Count)
system.l2cache.ReadSharedReq.hits::cpu.data          225                       # number of ReadSharedReq hits (Count)
system.l2cache.ReadSharedReq.hits::total          249                       # number of ReadSharedReq hits (Count)
system.l2cache.ReadSharedReq.misses::cpu.inst         1897                       # number of ReadSharedReq misses (Count)
system.l2cache.ReadSharedReq.misses::cpu.data       740973                       # number of ReadSharedReq misses (Count)
system.l2cache.ReadSharedReq.misses::total       742870                       # number of ReadSharedReq misses (Count)
system.l2cache.ReadSharedReq.missLatency::cpu.inst    186797000                       # number of ReadSharedReq miss ticks (Tick)
system.l2cache.ReadSharedReq.missLatency::cpu.data  71335929000                       # number of ReadSharedReq miss ticks (Tick)
system.l2cache.ReadSharedReq.missLatency::total  71522726000                       # number of ReadSharedReq miss ticks (Tick)
system.l2cache.ReadSharedReq.accesses::cpu.inst         1921                       # number of ReadSharedReq accesses(hits+misses) (Count)
system.l2cache.ReadSharedReq.accesses::cpu.data       741198                       # number of ReadSharedReq accesses(hits+misses) (Count)
system.l2cache.ReadSharedReq.accesses::total       743119                       # number of ReadSharedReq accesses(hits+misses) (Count)
system.l2cache.ReadSharedReq.missRate::cpu.inst     0.987507                       # miss rate for ReadSharedReq accesses (Ratio)
system.l2cache.ReadSharedReq.missRate::cpu.data     0.999696                       # miss rate for ReadSharedReq accesses (Ratio)
system.l2cache.ReadSharedReq.missRate::total     0.999665                       # miss rate for ReadSharedReq accesses (Ratio)
system.l2cache.ReadSharedReq.avgMissLatency::cpu.inst 98469.688983                       # average ReadSharedReq miss latency ((Tick/Count))
system.l2cache.ReadSharedReq.avgMissLatency::cpu.data 96273.317651                       # average ReadSharedReq miss latency ((Tick/Count))
system.l2cache.ReadSharedReq.avgMissLatency::total 96278.926326                       # average ReadSharedReq miss latency ((Tick/Count))
system.l2cache.ReadSharedReq.mshrMisses::cpu.inst         1897                       # number of ReadSharedReq MSHR misses (Count)
system.l2cache.ReadSharedReq.mshrMisses::cpu.data       740973                       # number of ReadSharedReq MSHR misses (Count)
system.l2cache.ReadSharedReq.mshrMisses::total       742870                       # number of ReadSharedReq MSHR misses (Count)
system.l2cache.ReadSharedReq.mshrMissLatency::cpu.inst    148857000                       # number of ReadSharedReq MSHR miss ticks (Tick)
system.l2cache.ReadSharedReq.mshrMissLatency::cpu.data  56516469000                       # number of ReadSharedReq MSHR miss ticks (Tick)
system.l2cache.ReadSharedReq.mshrMissLatency::total  56665326000                       # number of ReadSharedReq MSHR miss ticks (Tick)
system.l2cache.ReadSharedReq.mshrMissRate::cpu.inst     0.987507                       # mshr miss rate for ReadSharedReq accesses (Ratio)
system.l2cache.ReadSharedReq.mshrMissRate::cpu.data     0.999696                       # mshr miss rate for ReadSharedReq accesses (Ratio)
system.l2cache.ReadSharedReq.mshrMissRate::total     0.999665                       # mshr miss rate for ReadSharedReq accesses (Ratio)
system.l2cache.ReadSharedReq.avgMshrMissLatency::cpu.inst 78469.688983                       # average ReadSharedReq mshr miss latency ((Tick/Count))
system.l2cache.ReadSharedReq.avgMshrMissLatency::cpu.data 76273.317651                       # average ReadSharedReq mshr miss latency ((Tick/Count))
system.l2cache.ReadSharedReq.avgMshrMissLatency::total 76278.926326                       # average ReadSharedReq mshr miss latency ((Tick/Count))
system.l2cache.WritebackDirty.hits::writebacks        79058                       # number of WritebackDirty hits (Count)
system.l2cache.WritebackDirty.hits::total        79058                       # number of WritebackDirty hits (Count)
system.l2cache.WritebackDirty.accesses::writebacks        79058                       # number of WritebackDirty accesses(hits+misses) (Count)
system.l2cache.WritebackDirty.accesses::total        79058                       # number of WritebackDirty accesses(hits+misses) (Count)
system.l2cache.power_state.pwrStateResidencyTicks::UNDEFINED 274533334000                       # Cumulative time (in ticks) in various power states (Tick)
system.l2cache.tags.tagsInUse              511.930183                       # Average ticks per tags in use ((Tick/Count))
system.l2cache.tags.totalRefs                 1403073                       # Total number of references to valid blocks. (Count)
system.l2cache.tags.sampledRefs                790881                       # Sample count of references to valid blocks. (Count)
system.l2cache.tags.avgRefs                  1.774063                       # Average number of references to valid blocks. ((Count/Count))
system.l2cache.tags.warmupTick                  86000                       # The tick when the warmup percentage was hit. (Tick)
system.l2cache.tags.occupancies::writebacks    57.150233                       # Average occupied blocks per tick, per requestor ((Count/Tick))
system.l2cache.tags.occupancies::cpu.inst     5.932388                       # Average occupied blocks per tick, per requestor ((Count/Tick))
system.l2cache.tags.occupancies::cpu.data   448.847563                       # Average occupied blocks per tick, per requestor ((Count/Tick))
system.l2cache.tags.avgOccs::writebacks      0.111622                       # Average percentage of cache occupancy ((Ratio/Tick))
system.l2cache.tags.avgOccs::cpu.inst        0.011587                       # Average percentage of cache occupancy ((Ratio/Tick))
system.l2cache.tags.avgOccs::cpu.data        0.876655                       # Average percentage of cache occupancy ((Ratio/Tick))
system.l2cache.tags.avgOccs::total           0.999864                       # Average percentage of cache occupancy ((Ratio/Tick))
system.l2cache.tags.occupanciesTaskId::1024          512                       # Occupied blocks per task id (Count)
system.l2cache.tags.ageTaskId_1024::0              77                       # Occupied blocks per task id, per block age (Count)
system.l2cache.tags.ageTaskId_1024::1             275                       # Occupied blocks per task id, per block age (Count)
system.l2cache.tags.ageTaskId_1024::2              83                       # Occupied blocks per task id, per block age (Count)
system.l2cache.tags.ageTaskId_1024::3              50                       # Occupied blocks per task id, per block age (Count)
system.l2cache.tags.ageTaskId_1024::4              27                       # Occupied blocks per task id, per block age (Count)
system.l2cache.tags.ratioOccsTaskId::1024            1                       # Ratio of occupied blocks and all blocks, per task id (Ratio)
system.l2cache.tags.tagAccesses              12918001                       # Number of tag accesses (Count)
system.l2cache.tags.dataAccesses             12918001                       # Number of data accesses (Count)
system.l2cache.tags.power_state.pwrStateResidencyTicks::UNDEFINED 274533334000                       # Cumulative time (in ticks) in various power states (Tick)
system.mem_ctrl.avgPriority_writebacks::samples     78905.00                       # Average QoS priority value for accepted requests (Count)
system.mem_ctrl.avgPriority_cpu.inst::samples      1897.00                       # Average QoS priority value for accepted requests (Count)
system.mem_ctrl.avgPriority_cpu.data::samples    752110.00                       # Average QoS priority value for accepted requests (Count)
system.mem_ctrl.priorityMinLatency       0.000000018750                       # per QoS priority minimum request to response latency (Second)
system.mem_ctrl.priorityMaxLatency       0.011772162500                       # per QoS priority maximum request to response latency (Second)
system.mem_ctrl.numReadWriteTurnArounds          4389                       # Number of turnarounds from READ to WRITE (Count)
system.mem_ctrl.numWriteReadTurnArounds          4389                       # Number of turnarounds from WRITE to READ (Count)
system.mem_ctrl.numStayReadState              1657077                       # Number of times bus staying in READ state (Count)
system.mem_ctrl.numStayWriteState               74632                       # Number of times bus staying in WRITE state (Count)
system.mem_ctrl.readReqs                       757890                       # Number of read requests accepted (Count)
system.mem_ctrl.writeReqs                       78954                       # Number of write requests accepted (Count)
system.mem_ctrl.readBursts                     757890                       # Number of controller read bursts, including those serviced by the write queue (Count)
system.mem_ctrl.writeBursts                     78954                       # Number of controller write bursts, including those merged in the write queue (Count)
system.mem_ctrl.servicedByWrQ                    3883                       # Number of controller read bursts serviced by the write queue (Count)
system.mem_ctrl.mergedWrBursts                     49                       # Number of controller write bursts merged with an existing one (Count)
system.mem_ctrl.neitherReadNorWriteReqs             0                       # Number of requests that are neither read nor write (Count)
system.mem_ctrl.avgRdQLen                        1.00                       # Average read queue length when enqueuing ((Count/Tick))
system.mem_ctrl.avgWrQLen                       24.39                       # Average write queue length when enqueuing ((Count/Tick))
system.mem_ctrl.numRdRetry                          0                       # Number of times read queue was full causing retry (Count)
system.mem_ctrl.numWrRetry                          0                       # Number of times write queue was full causing retry (Count)
system.mem_ctrl.readPktSize::0                      0                       # Read request sizes (log2) (Count)
system.mem_ctrl.readPktSize::1                      0                       # Read request sizes (log2) (Count)
system.mem_ctrl.readPktSize::2                      0                       # Read request sizes (log2) (Count)
system.mem_ctrl.readPktSize::3                      0                       # Read request sizes (log2) (Count)
system.mem_ctrl.readPktSize::4                      0                       # Read request sizes (log2) (Count)
system.mem_ctrl.readPktSize::5                      0                       # Read request sizes (log2) (Count)
system.mem_ctrl.readPktSize::6                 757890                       # Read request sizes (log2) (Count)
system.mem_ctrl.writePktSize::0                     0                       # Write request sizes (log2) (Count)
system.mem_ctrl.writePktSize::1                     0                       # Write request sizes (log2) (Count)
system.mem_ctrl.writePktSize::2                     0                       # Write request sizes (log2) (Count)
system.mem_ctrl.writePktSize::3                     0                       # Write request sizes (log2) (Count)
system.mem_ctrl.writePktSize::4                     0                       # Write request sizes (log2) (Count)
system.mem_ctrl.writePktSize::5                     0                       # Write request sizes (log2) (Count)
system.mem_ctrl.writePktSize::6                 78954                       # Write request sizes (log2) (Count)
system.mem_ctrl.rdQLenPdf::0                   754004                       # What read queue length does an incoming req see (Count)
system.mem_ctrl.rdQLenPdf::1                        3                       # What read queue length does an incoming req see (Count)
system.mem_ctrl.rdQLenPdf::2                        0                       # What read queue length does an incoming req see (Count)
system.mem_ctrl.rdQLenPdf::3                        0                       # What read queue length does an incoming req see (Count)
system.mem_ctrl.rdQLenPdf::4                        0                       # What read queue length does an incoming req see (Count)
system.mem_ctrl.rdQLenPdf::5                        0                       # What read queue length does an incoming req see (Count)
system.mem_ctrl.rdQLenPdf::6                        0                       # What read queue length does an incoming req see (Count)
system.mem_ctrl.rdQLenPdf::7                        0                       # What read queue length does an incoming req see (Count)
system.mem_ctrl.rdQLenPdf::8                        0                       # What read queue length does an incoming req see (Count)
system.mem_ctrl.rdQLenPdf::9                        0                       # What read queue length does an incoming req see (Count)
system.mem_ctrl.rdQLenPdf::10                       0                       # What read queue length does an incoming req see (Count)
system.mem_ctrl.rdQLenPdf::11                       0                       # What read queue length does an incoming req see (Count)
system.mem_ctrl.rdQLenPdf::12                       0                       # What read queue length does an incoming req see (Count)
system.mem_ctrl.rdQLenPdf::13                       0                       # What read queue length does an incoming req see (Count)
system.mem_ctrl.rdQLenPdf::14                       0                       # What read queue length does an incoming req see (Count)
system.mem_ctrl.rdQLenPdf::15                       0                       # What read queue length does an incoming req see (Count)
system.mem_ctrl.rdQLenPdf::16                       0                       # What read queue length does an incoming req see (Count)
system.mem_ctrl.rdQLenPdf::17                       0                       # What read queue length does an incoming req see (Count)
system.mem_ctrl.rdQLenPdf::18                       0                       # What read queue length does an incoming req see (Count)
system.mem_ctrl.rdQLenPdf::19                       0                       # What read queue length does an incoming req see (Count)
system.mem_ctrl.rdQLenPdf::20                       0                       # What read queue length does an incoming req see (Count)
system.mem_ctrl.rdQLenPdf::21                       0                       # What read queue length does an incoming req see (Count)
system.mem_ctrl.rdQLenPdf::22                       0                       # What read queue length does an incoming req see (Count)
system.mem_ctrl.rdQLenPdf::23                       0                       # What read queue length does an incoming req see (Count)
system.mem_ctrl.rdQLenPdf::24                       0                       # What read queue length does an incoming req see (Count)
system.mem_ctrl.rdQLenPdf::25                       0                       # What read queue length does an incoming req see (Count)
system.mem_ctrl.rdQLenPdf::26                       0                       # What read queue length does an incoming req see (Count)
system.mem_ctrl.rdQLenPdf::27                       0                       # What read queue length does an incoming req see (Count)
system.mem_ctrl.rdQLenPdf::28                       0                       # What read queue length does an incoming req see (Count)
system.mem_ctrl.rdQLenPdf::29                       0                       # What read queue length does an incoming req see (Count)
system.mem_ctrl.rdQLenPdf::30                       0                       # What read queue length does an incoming req see (Count)
system.mem_ctrl.rdQLenPdf::31                       0                       # What read queue length does an incoming req see (Count)
system.mem_ctrl.wrQLenPdf::0                        1                       # What write queue length does an incoming req see (Count)
system.mem_ctrl.wrQLenPdf::1                        1                       # What write queue length does an incoming req see (Count)
system.mem_ctrl.wrQLenPdf::2                        1                       # What write queue length does an incoming req see (Count)
system.mem_ctrl.wrQLenPdf::3                        1                       # What write queue length does an incoming req see (Count)
system.mem_ctrl.wrQLenPdf::4                        1                       # What write queue length does an incoming req see (Count)
system.mem_ctrl.wrQLenPdf::5                        1                       # What write queue length does an incoming req see (Count)
system.mem_ctrl.wrQLenPdf::6                        1                       # What write queue length does an incoming req see (Count)
system.mem_ctrl.wrQLenPdf::7                        1                       # What write queue length does an incoming req see (Count)
system.mem_ctrl.wrQLenPdf::8                        1                       # What write queue length does an incoming req see (Count)
system.mem_ctrl.wrQLenPdf::9                        1                       # What write queue length does an incoming req see (Count)
system.mem_ctrl.wrQLenPdf::10                       1                       # What write queue length does an incoming req see (Count)
system.mem_ctrl.wrQLenPdf::11                       1                       # What write queue length does an incoming req see (Count)
system.mem_ctrl.wrQLenPdf::12                       1                       # What write queue length does an incoming req see (Count)
system.mem_ctrl.wrQLenPdf::13                       1                       # What write queue length does an incoming req see (Count)
system.mem_ctrl.wrQLenPdf::14                       1                       # What write queue length does an incoming req see (Count)
system.mem_ctrl.wrQLenPdf::15                    4291                       # What write queue length does an incoming req see (Count)
system.mem_ctrl.wrQLenPdf::16                    4295                       # What write queue length does an incoming req see (Count)
[...]
system.mem_ctrl.dram.bytesWritten::total      5053056                       # Number of bytes written to this memory (Byte)
system.mem_ctrl.dram.numReads::cpu.inst          1897                       # Number of read requests responded to by this memory (Count)
system.mem_ctrl.dram.numReads::cpu.data        755993                       # Number of read requests responded to by this memory (Count)
system.mem_ctrl.dram.numReads::total           757890                       # Number of read requests responded to by this memory (Count)
system.mem_ctrl.dram.numWrites::writebacks        78954                       # Number of write requests responded to by this memory (Count)
system.mem_ctrl.dram.numWrites::total           78954                       # Number of write requests responded to by this memory (Count)
system.mem_ctrl.dram.bwRead::cpu.inst          442234                       # Total read bandwidth from this memory ((Byte/Second))
system.mem_ctrl.dram.bwRead::cpu.data       176239261                       # Total read bandwidth from this memory ((Byte/Second))
system.mem_ctrl.dram.bwRead::total          176681495                       # Total read bandwidth from this memory ((Byte/Second))
system.mem_ctrl.dram.bwInstRead::cpu.inst       442234                       # Instruction read bandwidth from this memory ((Byte/Second))
system.mem_ctrl.dram.bwInstRead::total         442234                       # Instruction read bandwidth from this memory ((Byte/Second))
system.mem_ctrl.dram.bwWrite::writebacks     18405983                       # Write bandwidth from this memory ((Byte/Second))
system.mem_ctrl.dram.bwWrite::total          18405983                       # Write bandwidth from this memory ((Byte/Second))
system.mem_ctrl.dram.bwTotal::writebacks     18405983                       # Total bandwidth to/from this memory ((Byte/Second))
system.mem_ctrl.dram.bwTotal::cpu.inst         442234                       # Total bandwidth to/from this memory ((Byte/Second))
system.mem_ctrl.dram.bwTotal::cpu.data      176239261                       # Total bandwidth to/from this memory ((Byte/Second))
system.mem_ctrl.dram.bwTotal::total         195087479                       # Total bandwidth to/from this memory ((Byte/Second))
system.mem_ctrl.dram.readBursts                754007                       # Number of DRAM read bursts (Count)
system.mem_ctrl.dram.writeBursts                78875                       # Number of DRAM write bursts (Count)
system.mem_ctrl.dram.perBankRdBursts::0         45710                       # Per bank write bursts (Count)
system.mem_ctrl.dram.perBankRdBursts::1         46533                       # Per bank write bursts (Count)
system.mem_ctrl.dram.perBankRdBursts::2         47582                       # Per bank write bursts (Count)
system.mem_ctrl.dram.perBankRdBursts::3         45554                       # Per bank write bursts (Count)
system.mem_ctrl.dram.perBankRdBursts::4         45934                       # Per bank write bursts (Count)
system.mem_ctrl.dram.perBankRdBursts::5         47191                       # Per bank write bursts (Count)
system.mem_ctrl.dram.perBankRdBursts::6         47052                       # Per bank write bursts (Count)
system.mem_ctrl.dram.perBankRdBursts::7         47068                       # Per bank write bursts (Count)
system.mem_ctrl.dram.perBankRdBursts::8         46281                       # Per bank write bursts (Count)
system.mem_ctrl.dram.perBankRdBursts::9         45704                       # Per bank write bursts (Count)
system.mem_ctrl.dram.perBankRdBursts::10        46304                       # Per bank write bursts (Count)
system.mem_ctrl.dram.perBankRdBursts::11        45599                       # Per bank write bursts (Count)
system.mem_ctrl.dram.perBankRdBursts::12        45793                       # Per bank write bursts (Count)
system.mem_ctrl.dram.perBankRdBursts::13        54294                       # Per bank write bursts (Count)
system.mem_ctrl.dram.perBankRdBursts::14        50767                       # Per bank write bursts (Count)
system.mem_ctrl.dram.perBankRdBursts::15        46641                       # Per bank write bursts (Count)
system.mem_ctrl.dram.perBankWrBursts::0          4630                       # Per bank write bursts (Count)
system.mem_ctrl.dram.perBankWrBursts::1          5004                       # Per bank write bursts (Count)
system.mem_ctrl.dram.perBankWrBursts::2          5212                       # Per bank write bursts (Count)
system.mem_ctrl.dram.perBankWrBursts::3          4620                       # Per bank write bursts (Count)
system.mem_ctrl.dram.perBankWrBursts::4          4808                       # Per bank write bursts (Count)
system.mem_ctrl.dram.perBankWrBursts::5          4812                       # Per bank write bursts (Count)
system.mem_ctrl.dram.perBankWrBursts::6          4748                       # Per bank write bursts (Count)
system.mem_ctrl.dram.perBankWrBursts::7          4813                       # Per bank write bursts (Count)
system.mem_ctrl.dram.perBankWrBursts::8          4740                       # Per bank write bursts (Count)
system.mem_ctrl.dram.perBankWrBursts::9          4656                       # Per bank write bursts (Count)
system.mem_ctrl.dram.perBankWrBursts::10         4748                       # Per bank write bursts (Count)
system.mem_ctrl.dram.perBankWrBursts::11         4674                       # Per bank write bursts (Count)
system.mem_ctrl.dram.perBankWrBursts::12         4689                       # Per bank write bursts (Count)
system.mem_ctrl.dram.perBankWrBursts::13         5920                       # Per bank write bursts (Count)
system.mem_ctrl.dram.perBankWrBursts::14         5789                       # Per bank write bursts (Count)
system.mem_ctrl.dram.perBankWrBursts::15         5012                       # Per bank write bursts (Count)
system.mem_ctrl.dram.totQLat               4858032000                       # Total ticks spent queuing (Tick)
system.mem_ctrl.dram.totBusLat             3770035000                       # Total ticks spent in databus transfers (Tick)
system.mem_ctrl.dram.totMemAccLat         18995663250                       # Total ticks spent from burst creation until serviced by the DRAM (Tick)
system.mem_ctrl.dram.avgQLat                  6442.95                       # Average queueing delay per DRAM burst ((Tick/Count))
system.mem_ctrl.dram.avgBusLat                5000.00                       # Average bus latency per DRAM burst ((Tick/Count))
system.mem_ctrl.dram.avgMemAccLat            25192.95                       # Average memory access latency per DRAM burst ((Tick/Count))
system.mem_ctrl.dram.readRowHits               634015                       # Number of row buffer hits during reads (Count)
system.mem_ctrl.dram.writeRowHits               69571                       # Number of row buffer hits during writes (Count)
system.mem_ctrl.dram.readRowHitRate             84.09                       # Row buffer hit rate for reads (Ratio)
system.mem_ctrl.dram.writeRowHitRate            88.20                       # Row buffer hit rate for writes (Ratio)
system.mem_ctrl.dram.bytesPerActivate::samples       129291                       # Bytes accessed per row activation (Byte)
system.mem_ctrl.dram.bytesPerActivate::mean   412.277297                       # Bytes accessed per row activation (Byte)
system.mem_ctrl.dram.bytesPerActivate::gmean   339.677144                       # Bytes accessed per row activation (Byte)
system.mem_ctrl.dram.bytesPerActivate::stdev   202.714644                       # Bytes accessed per row activation (Byte)
system.mem_ctrl.dram.bytesPerActivate::0-127        13763     10.64%     10.64% # Bytes accessed per row activation (Byte)
system.mem_ctrl.dram.bytesPerActivate::128-255        15816     12.23%     22.88% # Bytes accessed per row activation (Byte)
system.mem_ctrl.dram.bytesPerActivate::256-383        10562      8.17%     31.05% # Bytes accessed per row activation (Byte)
system.mem_ctrl.dram.bytesPerActivate::384-511        17118     13.24%     44.29% # Bytes accessed per row activation (Byte)
system.mem_ctrl.dram.bytesPerActivate::512-639        64477     49.87%     94.16% # Bytes accessed per row activation (Byte)
system.mem_ctrl.dram.bytesPerActivate::640-767         3286      2.54%     96.70% # Bytes accessed per row activation (Byte)
system.mem_ctrl.dram.bytesPerActivate::768-895          214      0.17%     96.86% # Bytes accessed per row activation (Byte)
system.mem_ctrl.dram.bytesPerActivate::896-1023          243      0.19%     97.05% # Bytes accessed per row activation (Byte)
system.mem_ctrl.dram.bytesPerActivate::1024-1151         3812      2.95%    100.00% # Bytes accessed per row activation (Byte)
system.mem_ctrl.dram.bytesPerActivate::total       129291                       # Bytes accessed per row activation (Byte)
system.mem_ctrl.dram.dramBytesRead           48256448                       # Total bytes read (Byte)
system.mem_ctrl.dram.dramBytesWritten         5048000                       # Total bytes written (Byte)
system.mem_ctrl.dram.avgRdBW               175.776279                       # Average DRAM read bandwidth in MiBytes/s ((Byte/Second))
system.mem_ctrl.dram.avgWrBW                18.387567                       # Average DRAM write bandwidth in MiBytes/s ((Byte/Second))
system.mem_ctrl.dram.peakBW                  12800.00                       # Theoretical peak bandwidth in MiByte/s ((Byte/Second))
system.mem_ctrl.dram.busUtil                     1.52                       # Data bus utilization in percentage (Ratio)
system.mem_ctrl.dram.busUtilRead                 1.37                       # Data bus utilization in percentage for reads (Ratio)
system.mem_ctrl.dram.busUtilWrite                0.14                       # Data bus utilization in percentage for writes (Ratio)
system.mem_ctrl.dram.pageHitRate                84.48                       # Row buffer hit rate, read and write combined (Ratio)
system.mem_ctrl.dram.power_state.pwrStateResidencyTicks::UNDEFINED 274533334000                       # Cumulative time (in ticks) in various power states (Tick)
system.mem_ctrl.dram.rank0.actEnergy        464871120                       # Energy for activate commands per rank (pJ) (Joule)
system.mem_ctrl.dram.rank0.preEnergy        247069680                       # Energy for precharge commands per rank (pJ) (Joule)
system.mem_ctrl.dram.rank0.readEnergy      2660535360                       # Energy for read commands per rank (pJ) (Joule)
system.mem_ctrl.dram.rank0.writeEnergy      201737340                       # Energy for write commands per rank (pJ) (Joule)
system.mem_ctrl.dram.rank0.refreshEnergy 21670977120.000004                       # Energy for refresh commands per rank (pJ) (Joule)
system.mem_ctrl.dram.rank0.actBackEnergy  73953144060                       # Energy for active background per rank (pJ) (Joule)
system.mem_ctrl.dram.rank0.preBackEnergy  43144468800                       # Energy for precharge background per rank (pJ) (Joule)
system.mem_ctrl.dram.rank0.actPowerDownEnergy            0                       # Energy for active power-down per rank (pJ) (Joule)
system.mem_ctrl.dram.rank0.prePowerDownEnergy            0                       # Energy for precharge power-down per rank (pJ) (Joule)
system.mem_ctrl.dram.rank0.selfRefreshEnergy            0                       # Energy for self refresh per rank (pJ) (Joule)
system.mem_ctrl.dram.rank0.totalEnergy   142342803480                       # Total energy per rank (pJ) (Joule)
system.mem_ctrl.dram.rank0.averagePower    518.490055                       # Core power per rank (mW) (Watt)
system.mem_ctrl.dram.rank0.totalIdleTime            0                       # Total Idle time Per DRAM Rank (Tick)
system.mem_ctrl.dram.rank0.pwrStateTime::IDLE 111509475000                       # Time in different power states (Tick)
system.mem_ctrl.dram.rank0.pwrStateTime::REF   9167080000                       # Time in different power states (Tick)
system.mem_ctrl.dram.rank0.pwrStateTime::SREF            0                       # Time in different power states (Tick)
system.mem_ctrl.dram.rank0.pwrStateTime::PRE_PDN            0                       # Time in different power states (Tick)
system.mem_ctrl.dram.rank0.pwrStateTime::ACT 153856779000                       # Time in different power states (Tick)
system.mem_ctrl.dram.rank0.pwrStateTime::ACT_PDN            0                       # Time in different power states (Tick)
system.mem_ctrl.dram.rank1.actEnergy        458302320                       # Energy for activate commands per rank (pJ) (Joule)
system.mem_ctrl.dram.rank1.preEnergy        243589665                       # Energy for precharge commands per rank (pJ) (Joule)
system.mem_ctrl.dram.rank1.readEnergy      2723074620                       # Energy for read commands per rank (pJ) (Joule)
system.mem_ctrl.dram.rank1.writeEnergy      209990160                       # Energy for write commands per rank (pJ) (Joule)
system.mem_ctrl.dram.rank1.refreshEnergy 21670977120.000004                       # Energy for refresh commands per rank (pJ) (Joule)
system.mem_ctrl.dram.rank1.actBackEnergy  73539434070                       # Energy for active background per rank (pJ) (Joule)
system.mem_ctrl.dram.rank1.preBackEnergy  43492856160                       # Energy for precharge background per rank (pJ) (Joule)
system.mem_ctrl.dram.rank1.actPowerDownEnergy            0                       # Energy for active power-down per rank (pJ) (Joule)
system.mem_ctrl.dram.rank1.prePowerDownEnergy            0                       # Energy for precharge power-down per rank (pJ) (Joule)
system.mem_ctrl.dram.rank1.selfRefreshEnergy            0                       # Energy for self refresh per rank (pJ) (Joule)
system.mem_ctrl.dram.rank1.totalEnergy   142338224115                       # Total energy per rank (pJ) (Joule)
system.mem_ctrl.dram.rank1.averagePower    518.473375                       # Core power per rank (mW) (Watt)
system.mem_ctrl.dram.rank1.totalIdleTime            0                       # Total Idle time Per DRAM Rank (Tick)
system.mem_ctrl.dram.rank1.pwrStateTime::IDLE 112429767750                       # Time in different power states (Tick)
system.mem_ctrl.dram.rank1.pwrStateTime::REF   9167080000                       # Time in different power states (Tick)
system.mem_ctrl.dram.rank1.pwrStateTime::SREF            0                       # Time in different power states (Tick)
system.mem_ctrl.dram.rank1.pwrStateTime::PRE_PDN            0                       # Time in different power states (Tick)
system.mem_ctrl.dram.rank1.pwrStateTime::ACT 152936486250                       # Time in different power states (Tick)
system.mem_ctrl.dram.rank1.pwrStateTime::ACT_PDN            0                       # Time in different power states (Tick)
system.mem_ctrl.power_state.pwrStateResidencyTicks::UNDEFINED 274533334000                       # Cumulative time (in ticks) in various power states (Tick)
system.membus.transDist::ReadResp              742870                       # Transaction distribution (Count)
system.membus.transDist::WritebackDirty         78954                       # Transaction distribution (Count)
system.membus.transDist::CleanEvict            678273                       # Transaction distribution (Count)
system.membus.transDist::ReadExReq              15020                       # Transaction distribution (Count)
system.membus.transDist::ReadExResp             15020                       # Transaction distribution (Count)
system.membus.transDist::ReadSharedReq         742870                       # Transaction distribution (Count)
system.membus.pktCount_system.l2cache.mem_side_port::system.mem_ctrl.port      2273007                       # Packet count per connected requestor and responder (Count)
system.membus.pktCount_system.l2cache.mem_side_port::total      2273007                       # Packet count per connected requestor and responder (Count)
system.membus.pktCount::total                 2273007                       # Packet count per connected requestor and responder (Count)
system.membus.pktSize_system.l2cache.mem_side_port::system.mem_ctrl.port     53558016                       # Cumulative packet size per connected requestor and responder (Byte)
system.membus.pktSize_system.l2cache.mem_side_port::total     53558016                       # Cumulative packet size per connected requestor and responder (Byte)
system.membus.pktSize::total                 53558016                       # Cumulative packet size per connected requestor and responder (Byte)
system.membus.snoops                                0                       # Total snoops (Count)
system.membus.snoopTraffic                          0                       # Total snoop traffic (Byte)
system.membus.snoopFanout::samples             757890                       # Request fanout histogram (Count)
system.membus.snoopFanout::mean                     0                       # Request fanout histogram (Count)
system.membus.snoopFanout::stdev                    0                       # Request fanout histogram (Count)
system.membus.snoopFanout::underflows               0      0.00%      0.00% # Request fanout histogram (Count)
system.membus.snoopFanout::0                   757890    100.00%    100.00% # Request fanout histogram (Count)
system.membus.snoopFanout::1                        0      0.00%    100.00% # Request fanout histogram (Count)
system.membus.snoopFanout::overflows                0      0.00%    100.00% # Request fanout histogram (Count)
system.membus.snoopFanout::min_value                0                       # Request fanout histogram (Count)
system.membus.snoopFanout::max_value                0                       # Request fanout histogram (Count)
system.membus.snoopFanout::total               757890                       # Request fanout histogram (Count)
system.membus.power_state.pwrStateResidencyTicks::UNDEFINED 274533334000                       # Cumulative time (in ticks) in various power states (Tick)
system.membus.reqLayer2.occupancy          1830933000                       # Layer occupancy (ticks) (Tick)
system.membus.reqLayer2.utilization               0.0                       # Layer utilization (Ratio)
system.membus.respLayer0.occupancy         4007021250                       # Layer occupancy (ticks) (Tick)
system.membus.respLayer0.utilization              0.0                       # Layer utilization (Ratio)
system.membus.snoop_filter.totRequests        1515117                       # Total number of requests made to the snoop filter. (Count)
system.membus.snoop_filter.hitSingleRequests       757227                       # Number of requests hitting in the snoop filter with a single holder of the requested data. (Count)
system.membus.snoop_filter.hitMultiRequests            0                       # Number of requests hitting in the snoop filter with multiple (>1) holders of the requested data. (Count)
system.membus.snoop_filter.totSnoops                0                       # Total number of snoops made to the snoop filter. (Count)
system.membus.snoop_filter.hitSingleSnoops            0                       # Number of snoops hitting in the snoop filter with a single holder of the requested data. (Count)
system.membus.snoop_filter.hitMultiSnoops            0                       # Number of snoops hitting in the snoop filter with multiple (>1) holders of the requested data. (Count)
system.workload.inst.arm                            0                       # number of arm instructions executed (Count)
system.workload.inst.quiesce                        0                       # number of quiesce instructions executed (Count)

---------- End Simulation Statistics   ----------
