
---------- Begin Simulation Statistics ----------
simSeconds                                   0.280417                       # Number of seconds simulated (Second)
simTicks                                 280416527000                       # Number of ticks simulated (Tick)
finalTick                                280416527000                       # Number of ticks from beginning of simulation (restored from checkpoints and never reset) (Tick)
simFreq                                  1000000000000                       # The number of ticks per simulated second ((Tick/Second))
hostSeconds                                    127.45                       # Real time elapsed on the host (Second)
hostTickRate                               2200172954                       # The number of ticks simulated per host second (ticks/s) ((Tick/Second))
hostMemory                                     700228                       # Number of bytes of host memory used (Byte)
simInsts                                     51493500                       # Number of instructions simulated (Count)
simOps                                       77080478                       # Number of ops (including micro ops) simulated (Count)
hostInstRate                                   403998                       # Simulator instruction rate (inst/s) ((Count/Second))
hostOpRate                                     604742                       # Simulator op (including micro ops) rate (op/s) ((Count/Second))
system.clk_domain.clock                          1000                       # Clock period in ticks (Tick)
system.clk_domain.voltage_domain.voltage            1                       # Voltage in Volts (Volt)
system.cpu.numCycles                        280416527                       # Number of cpu cycles simulated (Cycle)
system.cpu.cpi                               5.445655                       # CPI: cycles per instruction (core level) ((Cycle/Count))
system.cpu.ipc                               0.183633                       # IPC: instructions per cycle (core level) ((Count/Cycle))
system.cpu.numWorkItemsStarted                      0                       # Number of work items this cpu started (Count)
system.cpu.numWorkItemsCompleted                    0                       # Number of work items this cpu completed (Count)
system.cpu.commitStats0.numInsts             51493623                       # Number of instructions committed (thread level) (Count)
system.cpu.commitStats0.numOps               77080845                       # Number of ops (including micro ops) committed (thread level) (Count)
system.cpu.commitStats0.numInstsNotNOP              0                       # Number of instructions committed excluding NOPs or prefetches (Count)
system.cpu.commitStats0.numOpsNotNOP                0                       # Number of Ops (including micro ops) Simulated (Count)
system.cpu.commitStats0.cpi                  5.445655                       # CPI: cycles per instruction (thread level) ((Cycle/Count))
system.cpu.commitStats0.ipc                  0.183633                       # IPC: instructions per cycle (thread level) ((Count/Cycle))
system.cpu.commitStats0.numMemRefs                  0                       # Number of memory references committed (Count)
system.cpu.commitStats0.numFpInsts           18410170                       # Number of float instructions (Count)
system.cpu.commitStats0.numIntInsts          66037141                       # Number of integer instructions (Count)
system.cpu.commitStats0.numLoadInsts         22145982                       # Number of load instructions (Count)
system.cpu.commitStats0.numStoreInsts         4655186                       # Number of store instructions (Count)
system.cpu.commitStats0.numVecInsts                 0                       # Number of vector instructions (Count)
system.cpu.commitStats0.committedInstType::No_OpClass       438628      0.57%      0.57% # Class of committed instruction. (Count)
system.cpu.commitStats0.committedInstType::IntAlu     40030136     51.93%     52.50% # Class of committed instruction. (Count)
system.cpu.commitStats0.committedInstType::IntMult         9468      0.01%     52.51% # Class of committed instruction. (Count)
system.cpu.commitStats0.committedInstType::IntDiv         1806      0.00%     52.52% # Class of committed instruction. (Count)
system.cpu.commitStats0.committedInstType::FloatAdd      5237070      6.79%     59.31% # Class of committed instruction. (Count)
system.cpu.commitStats0.committedInstType::FloatCmp            0      0.00%     59.31% # Class of committed instruction. (Count)
system.cpu.commitStats0.committedInstType::FloatCvt           32      0.00%     59.31% # Class of committed instruction. (Count)
system.cpu.commitStats0.committedInstType::FloatMult            0      0.00%     59.31% # Class of committed instruction. (Count)
system.cpu.commitStats0.committedInstType::FloatMultAcc            0      0.00%     59.31% # Class of committed instruction. (Count)
system.cpu.commitStats0.committedInstType::FloatDiv            0      0.00%     59.31% # Class of committed instruction. (Count)
system.cpu.commitStats0.committedInstType::FloatMisc            0      0.00%     59.31% # Class of committed instruction. (Count)
system.cpu.commitStats0.committedInstType::FloatSqrt            0      0.00%     59.31% # Class of committed instruction. (Count)
system.cpu.commitStats0.committedInstType::SimdAdd          572      0.00%     59.31% # Class of committed instruction. (Count)
system.cpu.commitStats0.committedInstType::SimdAddAcc            0      0.00%     59.31% # Class of committed instruction. (Count)
system.cpu.commitStats0.committedInstType::SimdAlu       228392      0.30%     59.61% # Class of committed instruction. (Count)
system.cpu.commitStats0.committedInstType::SimdCmp            6      0.00%     59.61% # Class of committed instruction. (Count)
system.cpu.commitStats0.committedInstType::SimdCvt         1504      0.00%     59.61% # Class of committed instruction. (Count)
system.cpu.commitStats0.committedInstType::SimdMisc       315159      0.41%     60.02% # Class of committed instruction. (Count)
system.cpu.commitStats0.committedInstType::SimdMult            0      0.00%     60.02% # Class of committed instruction. (Count)
system.cpu.commitStats0.committedInstType::SimdMultAcc            0      0.00%     60.02% # Class of committed instruction. (Count)
system.cpu.commitStats0.committedInstType::SimdMatMultAcc            0      0.00%     60.02% # Class of committed instruction. (Count)
system.cpu.commitStats0.committedInstType::SimdShift          238      0.00%     60.02% # Class of committed instruction. (Count)
system.cpu.commitStats0.committedInstType::SimdShiftAcc            0      0.00%     60.02% # Class of committed instruction. (Count)
system.cpu.commitStats0.committedInstType::SimdDiv            0      0.00%     60.02% # Class of committed instruction. (Count)
system.cpu.commitStats0.committedInstType::SimdSqrt            0      0.00%     60.02% # Class of committed instruction. (Count)
system.cpu.commitStats0.committedInstType::SimdFloatAdd      1640590      2.13%     62.15% # Class of committed instruction. (Count)
system.cpu.commitStats0.committedInstType::SimdFloatAlu            0      0.00%     62.15% # Class of committed instruction. (Count)
system.cpu.commitStats0.committedInstType::SimdFloatCmp            0      0.00%     62.15% # Class of committed instruction. (Count)
system.cpu.commitStats0.committedInstType::SimdFloatCvt       108178      0.14%     62.29% # Class of committed instruction. (Count)
system.cpu.commitStats0.committedInstType::SimdFloatDiv       106536      0.14%     62.43% # Class of committed instruction. (Count)
system.cpu.commitStats0.committedInstType::SimdFloatMisc            0      0.00%     62.43% # Class of committed instruction. (Count)
system.cpu.commitStats0.committedInstType::SimdFloatMult      2161362      2.80%     65.23% # Class of committed instruction. (Count)
system.cpu.commitStats0.committedInstType::SimdFloatMultAcc            0      0.00%     65.23% # Class of committed instruction. (Count)
system.cpu.commitStats0.committedInstType::SimdFloatMatMultAcc            0      0.00%     65.23% # Class of committed instruction. (Count)
system.cpu.commitStats0.committedInstType::SimdFloatSqrt            0      0.00%     65.23% # Class of committed instruction. (Count)
system.cpu.commitStats0.committedInstType::SimdReduceAdd            0      0.00%     65.23% # Class of committed instruction. (Count)
system.cpu.commitStats0.committedInstType::SimdReduceAlu            0      0.00%     65.23% # Class of committed instruction. (Count)
system.cpu.commitStats0.committedInstType::SimdReduceCmp            0      0.00%     65.23% # Class of committed instruction. (Count)
system.cpu.commitStats0.committedInstType::SimdFloatReduceAdd            0      0.00%     65.23% # Class of committed instruction. (Count)
system.cpu.commitStats0.committedInstType::SimdFloatReduceCmp            0      0.00%     65.23% # Class of committed instruction. (Count)
system.cpu.commitStats0.committedInstType::SimdAes            0      0.00%     65.23% # Class of committed instruction. (Count)
system.cpu.commitStats0.committedInstType::SimdAesMix            0      0.00%     65.23% # Class of committed instruction. (Count)
system.cpu.commitStats0.committedInstType::SimdSha1Hash            0      0.00%     65.23% # Class of committed instruction. (Count)
system.cpu.commitStats0.committedInstType::SimdSha1Hash2            0      0.00%     65.23% # Class of committed instruction. (Count)
system.cpu.commitStats0.committedInstType::SimdSha256Hash            0      0.00%     65.23% # Class of committed instruction. (Count)
system.cpu.commitStats0.committedInstType::SimdSha256Hash2            0      0.00%     65.23% # Class of committed instruction. (Count)
system.cpu.commitStats0.committedInstType::SimdShaSigma2            0      0.00%     65.23% # Class of committed instruction. (Count)
system.cpu.commitStats0.committedInstType::SimdShaSigma3            0      0.00%     65.23% # Class of committed instruction. (Count)
system.cpu.commitStats0.committedInstType::SimdPredAlu            0      0.00%     65.23% # Class of committed instruction. (Count)
system.cpu.commitStats0.committedInstType::Matrix            0      0.00%     65.23% # Class of committed instruction. (Count)
system.cpu.commitStats0.committedInstType::MatrixMov            0      0.00%     65.23% # Class of committed instruction. (Count)
system.cpu.commitStats0.committedInstType::MatrixOP            0      0.00%     65.23% # Class of committed instruction. (Count)
system.cpu.commitStats0.committedInstType::MemRead     16602719     21.54%     86.77% # Class of committed instruction. (Count)
system.cpu.commitStats0.committedInstType::MemWrite      2706845      3.51%     90.28% # Class of committed instruction. (Count)
system.cpu.commitStats0.committedInstType::FloatMemRead      5543263      7.19%     97.47% # Class of committed instruction. (Count)
system.cpu.commitStats0.committedInstType::FloatMemWrite      1948341      2.53%    100.00% # Class of committed instruction. (Count)
system.cpu.commitStats0.committedInstType::IprAccess            0      0.00%    100.00% # Class of committed instruction. (Count)
system.cpu.commitStats0.committedInstType::InstPrefetch            0      0.00%    100.00% # Class of committed instruction. (Count)
system.cpu.commitStats0.committedInstType::SimdUnitStrideLoad            0      0.00%    100.00% # Class of committed instruction. (Count)
system.cpu.commitStats0.committedInstType::SimdUnitStrideStore            0      0.00%    100.00% # Class of committed instruction. (Count)
system.cpu.commitStats0.committedInstType::SimdUnitStrideMaskLoad            0      0.00%    100.00% # Class of committed instruction. (Count)
system.cpu.commitStats0.committedInstType::SimdUnitStrideMaskStore            0      0.00%    100.00% # Class of committed instruction. (Count)
system.cpu.commitStats0.committedInstType::SimdStridedLoad            0      0.00%    100.00% # Class of committed instruction. (Count)
system.cpu.commitStats0.committedInstType::SimdStridedStore            0      0.00%    100.00% # Class of committed instruction. (Count)
system.cpu.commitStats0.committedInstType::SimdIndexedLoad            0      0.00%    100.00% # Class of committed instruction. (Count)
system.cpu.commitStats0.committedInstType::SimdIndexedStore            0      0.00%    100.00% # Class of committed instruction. (Count)
system.cpu.commitStats0.committedInstType::SimdWholeRegisterLoad            0      0.00%    100.00% # Class of committed instruction. (Count)
system.cpu.commitStats0.committedInstType::SimdWholeRegisterStore            0      0.00%    100.00% # Class of committed instruction. (Count)
system.cpu.commitStats0.committedInstType::SimdUnitStrideFaultOnlyFirstLoad            0      0.00%    100.00% # Class of committed instruction. (Count)
system.cpu.commitStats0.committedInstType::SimdUnitStrideSegmentedLoad            0      0.00%    100.00% # Class of committed instruction. (Count)
system.cpu.commitStats0.committedInstType::SimdUnitStrideSegmentedStore            0      0.00%    100.00% # Class of committed instruction. (Count)
system.cpu.commitStats0.committedInstType::SimdExt            0      0.00%    100.00% # Class of committed instruction. (Count)
system.cpu.commitStats0.committedInstType::SimdFloatExt            0      0.00%    100.00% # Class of committed instruction. (Count)
system.cpu.commitStats0.committedInstType::SimdConfig            0      0.00%    100.00% # Class of committed instruction. (Count)
system.cpu.commitStats0.committedInstType::total     77080845                       # Class of committed instruction. (Count)
system.cpu.commitStats0.committedControl::IsControl      3555627                       # Class of control type instructions committed (Count)
system.cpu.commitStats0.committedControl::IsDirectControl      3112296                       # Class of control type instructions committed (Count)
system.cpu.commitStats0.committedControl::IsIndirectControl       443303                       # Class of control type instructions committed (Count)
system.cpu.commitStats0.committedControl::IsCondControl      2668901                       # Class of control type instructions committed (Count)
system.cpu.commitStats0.committedControl::IsUncondControl       886698                       # Class of control type instructions committed (Count)
system.cpu.commitStats0.committedControl::IsCall       321866                       # Class of control type instructions committed (Count)
system.cpu.commitStats0.committedControl::IsReturn       321862                       # Class of control type instructions committed (Count)
system.cpu.dcache.demandHits::cpu.data       26045118                       # number of demand (read+write) hits (Count)
system.cpu.dcache.demandHits::total          26045118                       # number of demand (read+write) hits (Count)
system.cpu.dcache.overallHits::cpu.data      26045118                       # number of overall hits (Count)
system.cpu.dcache.overallHits::total         26045118                       # number of overall hits (Count)
system.cpu.dcache.demandMisses::cpu.data       755787                       # number of demand (read+write) misses (Count)
system.cpu.dcache.demandMisses::total          755787                       # number of demand (read+write) misses (Count)
system.cpu.dcache.overallMisses::cpu.data       755787                       # number of overall misses (Count)
system.cpu.dcache.overallMisses::total         755787                       # number of overall misses (Count)
system.cpu.dcache.demandMissLatency::cpu.data  76094616000                       # number of demand (read+write) miss ticks (Tick)
system.cpu.dcache.demandMissLatency::total  76094616000                       # number of demand (read+write) miss ticks (Tick)
system.cpu.dcache.overallMissLatency::cpu.data  76094616000                       # number of overall miss ticks (Tick)
system.cpu.dcache.overallMissLatency::total  76094616000                       # number of overall miss ticks (Tick)
system.cpu.dcache.demandAccesses::cpu.data     26800905                       # number of demand (read+write) accesses (Count)
system.cpu.dcache.demandAccesses::total      26800905                       # number of demand (read+write) accesses (Count)
system.cpu.dcache.overallAccesses::cpu.data     26800905                       # number of overall (read+write) accesses (Count)
system.cpu.dcache.overallAccesses::total     26800905                       # number of overall (read+write) accesses (Count)
system.cpu.dcache.demandMissRate::cpu.data     0.028200                       # miss rate for demand accesses (Ratio)
system.cpu.dcache.demandMissRate::total      0.028200                       # miss rate for demand accesses (Ratio)
system.cpu.dcache.overallMissRate::cpu.data     0.028200                       # miss rate for overall accesses (Ratio)
system.cpu.dcache.overallMissRate::total     0.028200                       # miss rate for overall accesses (Ratio)
system.cpu.dcache.demandAvgMissLatency::cpu.data 100682.620897                       # average overall miss latency in ticks ((Tick/Count))
system.cpu.dcache.demandAvgMissLatency::total 100682.620897                       # average overall miss latency in ticks ((Tick/Count))
system.cpu.dcache.overallAvgMissLatency::cpu.data 100682.620897                       # average overall miss latency ((Tick/Count))
system.cpu.dcache.overallAvgMissLatency::total 100682.620897                       # average overall miss latency ((Tick/Count))
system.cpu.dcache.blockedCycles::no_mshrs            0                       # number of cycles access was blocked (Cycle)
system.cpu.dcache.blockedCycles::no_targets            0                       # number of cycles access was blocked (Cycle)
system.cpu.dcache.blockedCauses::no_mshrs            0                       # number of times access was blocked (Count)
system.cpu.dcache.blockedCauses::no_targets            0                       # number of times access was blocked (Count)
system.cpu.dcache.avgBlocked::no_mshrs            nan                       # average number of cycles each access was blocked ((Cycle/Count))
system.cpu.dcache.avgBlocked::no_targets          nan                       # average number of cycles each access was blocked ((Cycle/Count))
system.cpu.dcache.writebacks::writebacks        79080                       # number of writebacks (Count)
system.cpu.dcache.writebacks::total             79080                       # number of writebacks (Count)
system.cpu.dcache.demandMshrMisses::cpu.data       755787                       # number of demand (read+write) MSHR misses (Count)
system.cpu.dcache.demandMshrMisses::total       755787                       # number of demand (read+write) MSHR misses (Count)
system.cpu.dcache.overallMshrMisses::cpu.data       755787                       # number of overall MSHR misses (Count)
system.cpu.dcache.overallMshrMisses::total       755787                       # number of overall MSHR misses (Count)
system.cpu.dcache.demandMshrMissLatency::cpu.data  74583042000                       # number of demand (read+write) MSHR miss ticks (Tick)
system.cpu.dcache.demandMshrMissLatency::total  74583042000                       # number of demand (read+write) MSHR miss ticks (Tick)
system.cpu.dcache.overallMshrMissLatency::cpu.data  74583042000                       # number of overall MSHR miss ticks (Tick)
system.cpu.dcache.overallMshrMissLatency::total  74583042000                       # number of overall MSHR miss ticks (Tick)
system.cpu.dcache.demandMshrMissRate::cpu.data     0.028200                       # mshr miss ratio for demand accesses (Ratio)
system.cpu.dcache.demandMshrMissRate::total     0.028200                       # mshr miss ratio for demand accesses (Ratio)
system.cpu.dcache.overallMshrMissRate::cpu.data     0.028200                       # mshr miss ratio for overall accesses (Ratio)
system.cpu.dcache.overallMshrMissRate::total     0.028200                       # mshr miss ratio for overall accesses (Ratio)
system.cpu.dcache.demandAvgMshrMissLatency::cpu.data 98682.620897                       # average overall mshr miss latency ((Tick/Count))
system.cpu.dcache.demandAvgMshrMissLatency::total 98682.620897                       # average overall mshr miss latency ((Tick/Count))
system.cpu.dcache.overallAvgMshrMissLatency::cpu.data 98682.620897                       # average overall mshr miss latency ((Tick/Count))
system.cpu.dcache.overallAvgMshrMissLatency::total 98682.620897                       # average overall mshr miss latency ((Tick/Count))
system.cpu.dcache.replacements                 755531                       # number of replacements (Count)
system.cpu.dcache.ReadReq.hits::cpu.data     21405004                       # number of ReadReq hits (Count)
system.cpu.dcache.ReadReq.hits::total        21405004                       # number of ReadReq hits (Count)
system.cpu.dcache.ReadReq.misses::cpu.data       740740                       # number of ReadReq misses (Count)
system.cpu.dcache.ReadReq.misses::total        740740                       # number of ReadReq misses (Count)
system.cpu.dcache.ReadReq.missLatency::cpu.data  74393084000                       # number of ReadReq miss ticks (Tick)
system.cpu.dcache.ReadReq.missLatency::total  74393084000                       # number of ReadReq miss ticks (Tick)
system.cpu.dcache.ReadReq.accesses::cpu.data     22145744                       # number of ReadReq accesses(hits+misses) (Count)
system.cpu.dcache.ReadReq.accesses::total     22145744                       # number of ReadReq accesses(hits+misses) (Count)
system.cpu.dcache.ReadReq.missRate::cpu.data     0.033448                       # miss rate for ReadReq accesses (Ratio)
system.cpu.dcache.ReadReq.missRate::total     0.033448                       # miss rate for ReadReq accesses (Ratio)
system.cpu.dcache.ReadReq.avgMissLatency::cpu.data 100430.763831                       # average ReadReq miss latency ((Tick/Count))
system.cpu.dcache.ReadReq.avgMissLatency::total 100430.763831                       # average ReadReq miss latency ((Tick/Count))
system.cpu.dcache.ReadReq.mshrMisses::cpu.data       740740                       # number of ReadReq MSHR misses (Count)
system.cpu.dcache.ReadReq.mshrMisses::total       740740                       # number of ReadReq MSHR misses (Count)
system.cpu.dcache.ReadReq.mshrMissLatency::cpu.data  72911604000                       # number of ReadReq MSHR miss ticks (Tick)
system.cpu.dcache.ReadReq.mshrMissLatency::total  72911604000                       # number of ReadReq MSHR miss ticks (Tick)
system.cpu.dcache.ReadReq.mshrMissRate::cpu.data     0.033448                       # mshr miss rate for ReadReq accesses (Ratio)
system.cpu.dcache.ReadReq.mshrMissRate::total     0.033448                       # mshr miss rate for ReadReq accesses (Ratio)
system.cpu.dcache.ReadReq.avgMshrMissLatency::cpu.data 98430.763831                       # average ReadReq mshr miss latency ((Tick/Count))
system.cpu.dcache.ReadReq.avgMshrMissLatency::total 98430.763831                       # average ReadReq mshr miss latency ((Tick/Count))
system.cpu.dcache.WriteReq.hits::cpu.data      4640114                       # number of WriteReq hits (Count)
system.cpu.dcache.WriteReq.hits::total        4640114                       # number of WriteReq hits (Count)
system.cpu.dcache.WriteReq.misses::cpu.data        15047                       # number of WriteReq misses (Count)
system.cpu.dcache.WriteReq.misses::total        15047                       # number of WriteReq misses (Count)
system.cpu.dcache.WriteReq.missLatency::cpu.data   1701532000                       # number of WriteReq miss ticks (Tick)
system.cpu.dcache.WriteReq.missLatency::total   1701532000                       # number of WriteReq miss ticks (Tick)
system.cpu.dcache.WriteReq.accesses::cpu.data      4655161                       # number of WriteReq accesses(hits+misses) (Count)
system.cpu.dcache.WriteReq.accesses::total      4655161                       # number of WriteReq accesses(hits+misses) (Count)
system.cpu.dcache.WriteReq.missRate::cpu.data     0.003232                       # miss rate for WriteReq accesses (Ratio)
system.cpu.dcache.WriteReq.missRate::total     0.003232                       # miss rate for WriteReq accesses (Ratio)
system.cpu.dcache.WriteReq.avgMissLatency::cpu.data 113081.145743                       # average WriteReq miss latency ((Tick/Count))
system.cpu.dcache.WriteReq.avgMissLatency::total 113081.145743                       # average WriteReq miss latency ((Tick/Count))
system.cpu.dcache.WriteReq.mshrMisses::cpu.data        15047                       # number of WriteReq MSHR misses (Count)
system.cpu.dcache.WriteReq.mshrMisses::total        15047                       # number of WriteReq MSHR misses (Count)
system.cpu.dcache.WriteReq.mshrMissLatency::cpu.data   1671438000                       # number of WriteReq MSHR miss ticks (Tick)
system.cpu.dcache.WriteReq.mshrMissLatency::total   1671438000                       # number of WriteReq MSHR miss ticks (Tick)
system.cpu.dcache.WriteReq.mshrMissRate::cpu.data     0.003232                       # mshr miss rate for WriteReq accesses (Ratio)
system.cpu.dcache.WriteReq.mshrMissRate::total     0.003232                       # mshr miss rate for WriteReq accesses (Ratio)
system.cpu.dcache.WriteReq.avgMshrMissLatency::cpu.data 111081.145743                       # average WriteReq mshr miss latency ((Tick/Count))
system.cpu.dcache.WriteReq.avgMshrMissLatency::total 111081.145743                       # average WriteReq mshr miss latency ((Tick/Count))
system.cpu.dcache.power_state.pwrStateResidencyTicks::UNDEFINED 280416527000                       # Cumulative time (in ticks) in various power states (Tick)
system.cpu.dcache.tags.tagsInUse           255.961704                       # Average ticks per tags in use ((Tick/Count))
system.cpu.dcache.tags.totalRefs             26800905                       # Total number of references to valid blocks. (Count)
system.cpu.dcache.tags.sampledRefs             755787                       # Sample count of references to valid blocks. (Count)
system.cpu.dcache.tags.avgRefs              35.460924                       # Average number of references to valid blocks. ((Count/Count))
system.cpu.dcache.tags.warmupTick              218000                       # The tick when the warmup percentage was hit. (Tick)
system.cpu.dcache.tags.occupancies::cpu.data   255.961704                       # Average occupied blocks per tick, per requestor ((Count/Tick))
system.cpu.dcache.tags.avgOccs::cpu.data     0.999850                       # Average percentage of cache occupancy ((Ratio/Tick))
system.cpu.dcache.tags.avgOccs::total        0.999850                       # Average percentage of cache occupancy ((Ratio/Tick))
system.cpu.dcache.tags.occupanciesTaskId::1024          256                       # Occupied blocks per task id (Count)
system.cpu.dcache.tags.ageTaskId_1024::0           23                       # Occupied blocks per task id, per block age (Count)
system.cpu.dcache.tags.ageTaskId_1024::1          123                       # Occupied blocks per task id, per block age (Count)
system.cpu.dcache.tags.ageTaskId_1024::2           92                       # Occupied blocks per task id, per block age (Count)
system.cpu.dcache.tags.ageTaskId_1024::3           11                       # Occupied blocks per task id, per block age (Count)
system.cpu.dcache.tags.ageTaskId_1024::4            7                       # Occupied blocks per task id, per block age (Count)
system.cpu.dcache.tags.ratioOccsTaskId::1024            1                       # Ratio of occupied blocks and all blocks, per task id (Ratio)
system.cpu.dcache.tags.tagAccesses          107959407                       # Number of tag accesses (Count)
system.cpu.dcache.tags.dataAccesses         107959407                       # Number of data accesses (Count)
system.cpu.dcache.tags.power_state.pwrStateResidencyTicks::UNDEFINED 280416527000                       # Cumulative time (in ticks) in various power states (Tick)
system.cpu.exec_context.thread_0.numMatAluAccesses            0                       # Number of matrix alu accesses (Count)
system.cpu.exec_context.thread_0.numCallsReturns       643728                       # Number of times a function call or return occured (Count)
system.cpu.exec_context.thread_0.numMatInsts            0                       # Number of matrix instructions (Count)
system.cpu.exec_context.thread_0.numIdleCycles     0.001000                       # Number of idle cycles (Cycle)
system.cpu.exec_context.thread_0.numBusyCycles 280416526.999000                       # Number of busy cycles (Cycle)
system.cpu.exec_context.thread_0.notIdleFraction     1.000000                       # Percentage of non-idle cycles (Ratio)
system.cpu.exec_context.thread_0.idleFraction     0.000000                       # Percentage of idle cycles (Ratio)
system.cpu.executeStats0.numInsts                   0                       # Number of executed instructions (Count)
system.cpu.executeStats0.numNop                     0                       # Number of nop insts executed (Count)
system.cpu.executeStats0.numBranches                0                       # Number of branches executed (Count)
system.cpu.executeStats0.numLoadInsts               0                       # Number of load instructions executed (Count)
system.cpu.executeStats0.numStoreInsts       26801168                       # Number of stores executed (Count)
system.cpu.executeStats0.instRate                   0                       # Inst execution rate ((Count/Cycle))
system.cpu.executeStats0.numFpAluAccesses     18410170                       # Number of float alu accesses (Count)
system.cpu.executeStats0.numFpRegReads       16907136                       # Number of times the floating registers were read (Count)
system.cpu.executeStats0.numFpRegWrites      16457427                       # Number of times the floating registers were written (Count)
system.cpu.executeStats0.numIntAluAccesses     66037141                       # Number of integer alu accesses (Count)
system.cpu.executeStats0.numIntRegReads      78827519                       # Number of times the integer registers were read (Count)
system.cpu.executeStats0.numIntRegWrites     49314725                       # Number of times the integer registers were written (Count)
system.cpu.executeStats0.numMemRefs          26801168                       # Number of memory refs (Count)
system.cpu.executeStats0.numMiscRegReads     34035433                       # Number of times the Misc registers were read (Count)
system.cpu.executeStats0.numMiscRegWrites           18                       # Number of times the Misc registers were written (Count)
system.cpu.executeStats0.numVecAluAccesses            0                       # Number of vector alu accesses (Count)
system.cpu.executeStats0.numDiscardedOps            0                       # Number of ops (including micro ops) which were discarded before commit (Count)
system.cpu.fetchStats0.numInsts              51493623                       # Number of instructions fetched (thread level) (Count)
system.cpu.fetchStats0.numOps                77080845                       # Number of ops (including micro ops) fetched (thread level) (Count)
system.cpu.fetchStats0.fetchRate             0.183633                       # Number of inst fetches per cycle ((Count/Cycle))
system.cpu.fetchStats0.numBranches            3555627                       # Number of branches fetched (Count)
system.cpu.fetchStats0.branchRate            0.012680                       # Number of branch fetches per cycle (Ratio)
system.cpu.fetchStats0.numFetchSuspends             0                       # Number of times Execute suspended instruction fetching (Count)
system.cpu.icache.demandHits::cpu.inst       76016834                       # number of demand (read+write) hits (Count)
system.cpu.icache.demandHits::total          76016834                       # number of demand (read+write) hits (Count)
system.cpu.icache.overallHits::cpu.inst      76016834                       # number of overall hits (Count)
system.cpu.icache.overallHits::total         76016834                       # number of overall hits (Count)
system.cpu.icache.demandMisses::cpu.inst         1983                       # number of demand (read+write) misses (Count)
system.cpu.icache.demandMisses::total            1983                       # number of demand (read+write) misses (Count)
system.cpu.icache.overallMisses::cpu.inst         1983                       # number of overall misses (Count)
system.cpu.icache.overallMisses::total           1983                       # number of overall misses (Count)
system.cpu.icache.demandMissLatency::cpu.inst    198264000                       # number of demand (read+write) miss ticks (Tick)
system.cpu.icache.demandMissLatency::total    198264000                       # number of demand (read+write) miss ticks (Tick)
system.cpu.icache.overallMissLatency::cpu.inst    198264000                       # number of overall miss ticks (Tick)
system.cpu.icache.overallMissLatency::total    198264000                       # number of overall miss ticks (Tick)
system.cpu.icache.demandAccesses::cpu.inst     76018817                       # number of demand (read+write) accesses (Count)
system.cpu.icache.demandAccesses::total      76018817                       # number of demand (read+write) accesses (Count)
system.cpu.icache.overallAccesses::cpu.inst     76018817                       # number of overall (read+write) accesses (Count)
system.cpu.icache.overallAccesses::total     76018817                       # number of overall (read+write) accesses (Count)
system.cpu.icache.demandMissRate::cpu.inst     0.000026                       # miss rate for demand accesses (Ratio)
system.cpu.icache.demandMissRate::total      0.000026                       # miss rate for demand accesses (Ratio)
system.cpu.icache.overallMissRate::cpu.inst     0.000026                       # miss rate for overall accesses (Ratio)
system.cpu.icache.overallMissRate::total     0.000026                       # miss rate for overall accesses (Ratio)
system.cpu.icache.demandAvgMissLatency::cpu.inst 99981.845688                       # average overall miss latency in ticks ((Tick/Count))
system.cpu.icache.demandAvgMissLatency::total 99981.845688                       # average overall miss latency in ticks ((Tick/Count))
system.cpu.icache.overallAvgMissLatency::cpu.inst 99981.845688                       # average overall miss latency ((Tick/Count))
system.cpu.icache.overallAvgMissLatency::total 99981.845688                       # average overall miss latency ((Tick/Count))
system.cpu.icache.blockedCycles::no_mshrs            0                       # number of cycles access was blocked (Cycle)
system.cpu.icache.blockedCycles::no_targets            0                       # number of cycles access was blocked (Cycle)
system.cpu.icache.blockedCauses::no_mshrs            0                       # number of times access was blocked (Count)
system.cpu.icache.blockedCauses::no_targets            0                       # number of times access was blocked (Count)
system.cpu.icache.avgBlocked::no_mshrs            nan                       # average number of cycles each access was blocked ((Cycle/Count))
system.cpu.icache.avgBlocked::no_targets          nan                       # average number of cycles each access was blocked ((Cycle/Count))
system.cpu.icache.demandMshrMisses::cpu.inst         1983                       # number of demand (read+write) MSHR misses (Count)
system.cpu.icache.demandMshrMisses::total         1983                       # number of demand (read+write) MSHR misses (Count)
system.cpu.icache.overallMshrMisses::cpu.inst         1983                       # number of overall MSHR misses (Count)
system.cpu.icache.overallMshrMisses::total         1983                       # number of overall MSHR misses (Count)
system.cpu.icache.demandMshrMissLatency::cpu.inst    194298000                       # number of demand (read+write) MSHR miss ticks (Tick)
system.cpu.icache.demandMshrMissLatency::total    194298000                       # number of demand (read+write) MSHR miss ticks (Tick)
system.cpu.icache.overallMshrMissLatency::cpu.inst    194298000                       # number of overall MSHR miss ticks (Tick)
system.cpu.icache.overallMshrMissLatency::total    194298000                       # number of overall MSHR miss ticks (Tick)
system.cpu.icache.demandMshrMissRate::cpu.inst     0.000026                       # mshr miss ratio for demand accesses (Ratio)
system.cpu.icache.demandMshrMissRate::total     0.000026                       # mshr miss ratio for demand accesses (Ratio)
system.cpu.icache.overallMshrMissRate::cpu.inst     0.000026                       # mshr miss ratio for overall accesses (Ratio)
system.cpu.icache.overallMshrMissRate::total     0.000026                       # mshr miss ratio for overall accesses (Ratio)
system.cpu.icache.demandAvgMshrMissLatency::cpu.inst 97981.845688                       # average overall mshr miss latency ((Tick/Count))
system.cpu.icache.demandAvgMshrMissLatency::total 97981.845688                       # average overall mshr miss latency ((Tick/Count))
system.cpu.icache.overallAvgMshrMissLatency::cpu.inst 97981.845688                       # average overall mshr miss latency ((Tick/Count))
system.cpu.icache.overallAvgMshrMissLatency::total 97981.845688                       # average overall mshr miss latency ((Tick/Count))
system.cpu.icache.replacements                   1727                       # number of replacements (Count)
system.cpu.icache.ReadReq.hits::cpu.inst     76016834                       # number of ReadReq hits (Count)
system.cpu.icache.ReadReq.hits::total        76016834                       # number of ReadReq hits (Count)
system.cpu.icache.ReadReq.misses::cpu.inst         1983                       # number of ReadReq misses (Count)
system.cpu.icache.ReadReq.misses::total          1983                       # number of ReadReq misses (Count)
system.cpu.icache.ReadReq.missLatency::cpu.inst    198264000                       # number of ReadReq miss ticks (Tick)
system.cpu.icache.ReadReq.missLatency::total    198264000                       # number of ReadReq miss ticks (Tick)
system.cpu.icache.ReadReq.accesses::cpu.inst     76018817                       # number of ReadReq accesses(hits+misses) (Count)
system.cpu.icache.ReadReq.accesses::total     76018817                       # number of ReadReq accesses(hits+misses) (Count)
system.cpu.icache.ReadReq.missRate::cpu.inst     0.000026                       # miss rate for ReadReq accesses (Ratio)
system.cpu.icache.ReadReq.missRate::total     0.000026                       # miss rate for ReadReq accesses (Ratio)
system.cpu.icache.ReadReq.avgMissLatency::cpu.inst 99981.845688                       # average ReadReq miss latency ((Tick/Count))
system.cpu.icache.ReadReq.avgMissLatency::total 99981.845688                       # average ReadReq miss latency ((Tick/Count))
system.cpu.icache.ReadReq.mshrMisses::cpu.inst         1983                       # number of ReadReq MSHR misses (Count)
system.cpu.icache.ReadReq.mshrMisses::total         1983                       # number of ReadReq MSHR misses (Count)
system.cpu.icache.ReadReq.mshrMissLatency::cpu.inst    194298000                       # number of ReadReq MSHR miss ticks (Tick)
system.cpu.icache.ReadReq.mshrMissLatency::total    194298000                       # number of ReadReq MSHR miss ticks (Tick)
system.cpu.icache.ReadReq.mshrMissRate::cpu.inst     0.000026                       # mshr miss rate for ReadReq accesses (Ratio)
system.cpu.icache.ReadReq.mshrMissRate::total     0.000026                       # mshr miss rate for ReadReq accesses (Ratio)
system.cpu.icache.ReadReq.avgMshrMissLatency::cpu.inst 97981.845688                       # average ReadReq mshr miss latency ((Tick/Count))
system.cpu.icache.ReadReq.avgMshrMissLatency::total 97981.845688                       # average ReadReq mshr miss latency ((Tick/Count))
system.cpu.icache.power_state.pwrStateResidencyTicks::UNDEFINED 280416527000                       # Cumulative time (in ticks) in various power states (Tick)
system.cpu.icache.tags.tagsInUse           255.962372                       # Average ticks per tags in use ((Tick/Count))
system.cpu.icache.tags.totalRefs             76018817                       # Total number of references to valid blocks. (Count)
system.cpu.icache.tags.sampledRefs               1983                       # Sample count of references to valid blocks. (Count)
system.cpu.icache.tags.avgRefs           38335.258195                       # Average number of references to valid blocks. ((Count/Count))
system.cpu.icache.tags.warmupTick              107000                       # The tick when the warmup percentage was hit. (Tick)
system.cpu.icache.tags.occupancies::cpu.inst   255.962372                       # Average occupied blocks per tick, per requestor ((Count/Tick))
system.cpu.icache.tags.avgOccs::cpu.inst     0.999853                       # Average percentage of cache occupancy ((Ratio/Tick))
system.cpu.icache.tags.avgOccs::total        0.999853                       # Average percentage of cache occupancy ((Ratio/Tick))
system.cpu.icache.tags.occupanciesTaskId::1024          256                       # Occupied blocks per task id (Count)
system.cpu.icache.tags.ageTaskId_1024::0           50                       # Occupied blocks per task id, per block age (Count)
system.cpu.icache.tags.ageTaskId_1024::1          126                       # Occupied blocks per task id, per block age (Count)
system.cpu.icache.tags.ageTaskId_1024::2            3                       # Occupied blocks per task id, per block age (Count)
system.cpu.icache.tags.ageTaskId_1024::4           77                       # Occupied blocks per task id, per block age (Count)
system.cpu.icache.tags.ratioOccsTaskId::1024            1                       # Ratio of occupied blocks and all blocks, per task id (Ratio)
system.cpu.icache.tags.tagAccesses          304077251                       # Number of tag accesses (Count)
system.cpu.icache.tags.dataAccesses         304077251                       # Number of data accesses (Count)
system.cpu.icache.tags.power_state.pwrStateResidencyTicks::UNDEFINED 280416527000                       # Cumulative time (in ticks) in various power states (Tick)
system.cpu.interrupts.clk_domain.clock          16000                       # Clock period in ticks (Tick)
system.cpu.mmu.dtb.rdAccesses                22146005                       # TLB accesses on read requests (Count)
system.cpu.mmu.dtb.wrAccesses                 4655191                       # TLB accesses on write requests (Count)
system.cpu.mmu.dtb.rdMisses                    156469                       # TLB misses on read requests (Count)
system.cpu.mmu.dtb.wrMisses                       917                       # TLB misses on write requests (Count)
system.cpu.mmu.dtb.walker.power_state.pwrStateResidencyTicks::UNDEFINED 280416527000                       # Cumulative time (in ticks) in various power states (Tick)
system.cpu.mmu.itb.rdAccesses                       0                       # TLB accesses on read requests (Count)
system.cpu.mmu.itb.wrAccesses                76018888                       # TLB accesses on write requests (Count)
system.cpu.mmu.itb.rdMisses                         0                       # TLB misses on read requests (Count)
system.cpu.mmu.itb.wrMisses                       244                       # TLB misses on write requests (Count)
system.cpu.mmu.itb.walker.power_state.pwrStateResidencyTicks::UNDEFINED 280416527000                       # Cumulative time (in ticks) in various power states (Tick)
system.cpu.power_state.pwrStateResidencyTicks::ON 280416527000                       # Cumulative time (in ticks) in various power states (Tick)
system.cpu.thread_0.numInsts                        0                       # Number of Instructions committed (Count)
system.cpu.thread_0.numOps                          0                       # Number of Ops committed (Count)
system.cpu.thread_0.numMemRefs                      0                       # Number of Memory References (Count)
system.cpu.workload.numSyscalls                    76                       # Number of system calls (Count)
system.l2bus.transDist::ReadResp               742723                       # Transaction distribution (Count)
system.l2bus.transDist::WritebackDirty         158027                       # Transaction distribution (Count)
system.l2bus.transDist::CleanEvict            1408924                       # Transaction distribution (Count)
system.l2bus.transDist::ReadExReq               15047                       # Transaction distribution (Count)
system.l2bus.transDist::ReadExResp              15047                       # Transaction distribution (Count)
system.l2bus.transDist::ReadSharedReq          742723                       # Transaction distribution (Count)
system.l2bus.pktCount_system.cpu.icache.mem_side_port::system.l2cache.cpu_side_port         5693                       # Packet count per connected requestor and responder (Count)
system.l2bus.pktCount_system.cpu.dcache.mem_side_port::system.l2cache.cpu_side_port      2267105                       # Packet count per connected requestor and responder (Count)
system.l2bus.pktCount::total                  2272798                       # Packet count per connected requestor and responder (Count)
system.l2bus.pktSize_system.cpu.icache.mem_side_port::system.l2cache.cpu_side_port       126912                       # Cumulative packet size per connected requestor and responder (Byte)
system.l2bus.pktSize_system.cpu.dcache.mem_side_port::system.l2cache.cpu_side_port     53431488                       # Cumulative packet size per connected requestor and responder (Byte)
system.l2bus.pktSize::total                  53558400                       # Cumulative packet size per connected requestor and responder (Byte)
system.l2bus.snoops                            809693                       # Total snoops (Count)
system.l2bus.snoopTraffic                     5052608                       # Total snoop traffic (Byte)
system.l2bus.snoopFanout::samples             1567463                       # Request fanout histogram (Count)
system.l2bus.snoopFanout::mean               0.165303                       # Request fanout histogram (Count)
system.l2bus.snoopFanout::stdev              0.371454                       # Request fanout histogram (Count)
system.l2bus.snoopFanout::underflows                0      0.00%      0.00% # Request fanout histogram (Count)
system.l2bus.snoopFanout::0                   1308357     83.47%     83.47% # Request fanout histogram (Count)
system.l2bus.snoopFanout::1                    259106     16.53%    100.00% # Request fanout histogram (Count)
system.l2bus.snoopFanout::2                         0      0.00%    100.00% # Request fanout histogram (Count)
system.l2bus.snoopFanout::overflows                 0      0.00%    100.00% # Request fanout histogram (Count)
system.l2bus.snoopFanout::min_value                 0                       # Request fanout histogram (Count)
system.l2bus.snoopFanout::max_value                 1                       # Request fanout histogram (Count)
system.l2bus.snoopFanout::total               1567463                       # Request fanout histogram (Count)
system.l2bus.power_state.pwrStateResidencyTicks::UNDEFINED 280416527000                       # Cumulative time (in ticks) in various power states (Tick)
system.l2bus.reqLayer0.occupancy           1673188000                       # Layer occupancy (ticks) (Tick)
system.l2bus.reqLayer0.utilization                0.0                       # Layer utilization (Ratio)
system.l2bus.respLayer0.occupancy             5949000                       # Layer occupancy (ticks) (Tick)
system.l2bus.respLayer0.utilization               0.0                       # Layer utilization (Ratio)
system.l2bus.respLayer1.occupancy          2267361000                       # Layer occupancy (ticks) (Tick)
system.l2bus.respLayer1.utilization               0.0                       # Layer utilization (Ratio)
system.l2bus.snoop_filter.totRequests         1515028                       # Total number of requests made to the snoop filter. (Count)
system.l2bus.snoop_filter.hitSingleRequests       757258                       # Number of requests hitting in the snoop filter with a single holder of the requested data. (Count)
system.l2bus.snoop_filter.hitMultiRequests            0                       # Number of requests hitting in the snoop filter with multiple (>1) holders of the requested data. (Count)
system.l2bus.snoop_filter.totSnoops            259106                       # Total number of snoops made to the snoop filter. (Count)
system.l2bus.snoop_filter.hitSingleSnoops       259106                       # Number of snoops hitting in the snoop filter with a single holder of the requested data. (Count)
system.l2bus.snoop_filter.hitMultiSnoops            0                       # Number of snoops hitting in the snoop filter with multiple (>1) holders of the requested data. (Count)
system.l2cache.demandHits::cpu.inst                71                       # number of demand (read+write) hits (Count)
system.l2cache.demandHits::cpu.data               338                       # number of demand (read+write) hits (Count)
system.l2cache.demandHits::total                  409                       # number of demand (read+write) hits (Count)
system.l2cache.overallHits::cpu.inst               71                       # number of overall hits (Count)
system.l2cache.overallHits::cpu.data              338                       # number of overall hits (Count)
system.l2cache.overallHits::total                 409                       # number of overall hits (Count)
system.l2cache.demandMisses::cpu.inst            1912                       # number of demand (read+write) misses (Count)
system.l2cache.demandMisses::cpu.data          755449                       # number of demand (read+write) misses (Count)
system.l2cache.demandMisses::total             757361                       # number of demand (read+write) misses (Count)
system.l2cache.overallMisses::cpu.inst           1912                       # number of overall misses (Count)
system.l2cache.overallMisses::cpu.data         755449                       # number of overall misses (Count)
system.l2cache.overallMisses::total            757361                       # number of overall misses (Count)
system.l2cache.demandMissLatency::cpu.inst    186837000                       # number of demand (read+write) miss ticks (Tick)
system.l2cache.demandMissLatency::cpu.data  72308580000                       # number of demand (read+write) miss ticks (Tick)
system.l2cache.demandMissLatency::total   72495417000                       # number of demand (read+write) miss ticks (Tick)
system.l2cache.overallMissLatency::cpu.inst    186837000                       # number of overall miss ticks (Tick)
system.l2cache.overallMissLatency::cpu.data  72308580000                       # number of overall miss ticks (Tick)
system.l2cache.overallMissLatency::total  72495417000                       # number of overall miss ticks (Tick)
system.l2cache.demandAccesses::cpu.inst          1983                       # number of demand (read+write) accesses (Count)
system.l2cache.demandAccesses::cpu.data        755787                       # number of demand (read+write) accesses (Count)
system.l2cache.demandAccesses::total           757770                       # number of demand (read+write) accesses (Count)
system.l2cache.overallAccesses::cpu.inst         1983                       # number of overall (read+write) accesses (Count)
system.l2cache.overallAccesses::cpu.data       755787                       # number of overall (read+write) accesses (Count)
system.l2cache.overallAccesses::total          757770                       # number of overall (read+write) accesses (Count)
system.l2cache.demandMissRate::cpu.inst      0.964196                       # miss rate for demand accesses (Ratio)
system.l2cache.demandMissRate::cpu.data      0.999553                       # miss rate for demand accesses (Ratio)
system.l2cache.demandMissRate::total         0.999460                       # miss rate for demand accesses (Ratio)
system.l2cache.overallMissRate::cpu.inst     0.964196                       # miss rate for overall accesses (Ratio)
system.l2cache.overallMissRate::cpu.data     0.999553                       # miss rate for overall accesses (Ratio)
system.l2cache.overallMissRate::total        0.999460                       # miss rate for overall accesses (Ratio)
system.l2cache.demandAvgMissLatency::cpu.inst 97718.096234                       # average overall miss latency in ticks ((Tick/Count))
system.l2cache.demandAvgMissLatency::cpu.data 95716.031129                       # average overall miss latency in ticks ((Tick/Count))
system.l2cache.demandAvgMissLatency::total 95721.085453                       # average overall miss latency in ticks ((Tick/Count))
system.l2cache.overallAvgMissLatency::cpu.inst 97718.096234                       # average overall miss latency ((Tick/Count))
system.l2cache.overallAvgMissLatency::cpu.data 95716.031129                       # average overall miss latency ((Tick/Count))
system.l2cache.overallAvgMissLatency::total 95721.085453                       # average overall miss latency ((Tick/Count))
system.l2cache.blockedCycles::no_mshrs              0                       # number of cycles access was blocked (Cycle)
system.l2cache.blockedCycles::no_targets            0                       # number of cycles access was blocked (Cycle)
system.l2cache.blockedCauses::no_mshrs              0                       # number of times access was blocked (Count)
system.l2cache.blockedCauses::no_targets            0                       # number of times access was blocked (Count)
system.l2cache.avgBlocked::no_mshrs               nan                       # average number of cycles each access was blocked ((Cycle/Count))
system.l2cache.avgBlocked::no_targets             nan                       # average number of cycles each access was blocked ((Cycle/Count))
system.l2cache.writebacks::writebacks           78947                       # number of writebacks (Count)
system.l2cache.writebacks::total                78947                       # number of writebacks (Count)
system.l2cache.demandMshrMisses::cpu.inst         1912                       # number of demand (read+write) MSHR misses (Count)
system.l2cache.demandMshrMisses::cpu.data       755449                       # number of demand (read+write) MSHR misses (Count)
system.l2cache.demandMshrMisses::total         757361                       # number of demand (read+write) MSHR misses (Count)
system.l2cache.overallMshrMisses::cpu.inst         1912                       # number of overall MSHR misses (Count)
system.l2cache.overallMshrMisses::cpu.data       755449                       # number of overall MSHR misses (Count)
system.l2cache.overallMshrMisses::total        757361                       # number of overall MSHR misses (Count)
system.l2cache.demandMshrMissLatency::cpu.inst    148597000                       # number of demand (read+write) MSHR miss ticks (Tick)
system.l2cache.demandMshrMissLatency::cpu.data  57199600000                       # number of demand (read+write) MSHR miss ticks (Tick)
system.l2cache.demandMshrMissLatency::total  57348197000                       # number of demand (read+write) MSHR miss ticks (Tick)
system.l2cache.overallMshrMissLatency::cpu.inst    148597000                       # number of overall MSHR miss ticks (Tick)
system.l2cache.overallMshrMissLatency::cpu.data  57199600000                       # number of overall MSHR miss ticks (Tick)
system.l2cache.overallMshrMissLatency::total  57348197000                       # number of overall MSHR miss ticks (Tick)
system.l2cache.demandMshrMissRate::cpu.inst     0.964196                       # mshr miss ratio for demand accesses (Ratio)
system.l2cache.demandMshrMissRate::cpu.data     0.999553                       # mshr miss ratio for demand accesses (Ratio)
system.l2cache.demandMshrMissRate::total     0.999460                       # mshr miss ratio for demand accesses (Ratio)
system.l2cache.overallMshrMissRate::cpu.inst     0.964196                       # mshr miss ratio for overall accesses (Ratio)
system.l2cache.overallMshrMissRate::cpu.data     0.999553                       # mshr miss ratio for overall accesses (Ratio)
system.l2cache.overallMshrMissRate::total     0.999460                       # mshr miss ratio for overall accesses (Ratio)
system.l2cache.demandAvgMshrMissLatency::cpu.inst 77718.096234                       # average overall mshr miss latency ((Tick/Count))
system.l2cache.demandAvgMshrMissLatency::cpu.data 75716.031129                       # average overall mshr miss latency ((Tick/Count))
system.l2cache.demandAvgMshrMissLatency::total 75721.085453                       # average overall mshr miss latency ((Tick/Count))
system.l2cache.overallAvgMshrMissLatency::cpu.inst 77718.096234                       # average overall mshr miss latency ((Tick/Count))
system.l2cache.overallAvgMshrMissLatency::cpu.data 75716.031129                       # average overall mshr miss latency ((Tick/Count))
system.l2cache.overallAvgMshrMissLatency::total 75721.085453                       # average overall mshr miss latency ((Tick/Count))
system.l2cache.replacements                    809693                       # number of replacements (Count)
system.l2cache.CleanEvict.mshrMisses::writebacks       206098                       # number of CleanEvict MSHR misses (Count)
system.l2cache.CleanEvict.mshrMisses::total       206098                       # number of CleanEvict MSHR misses (Count)
system.l2cache.CleanEvict.mshrMissRate::writebacks          inf                       # mshr miss rate for CleanEvict accesses (Ratio)
system.l2cache.CleanEvict.mshrMissRate::total          inf                       # mshr miss rate for CleanEvict accesses (Ratio)
system.l2cache.ReadExReq.hits::cpu.data            37                       # number of ReadExReq hits (Count)
system.l2cache.ReadExReq.hits::total               37                       # number of ReadExReq hits (Count)
system.l2cache.ReadExReq.misses::cpu.data        15010                       # number of ReadExReq misses (Count)
system.l2cache.ReadExReq.misses::total          15010                       # number of ReadExReq misses (Count)
system.l2cache.ReadExReq.missLatency::cpu.data   1625519000                       # number of ReadExReq miss ticks (Tick)
system.l2cache.ReadExReq.missLatency::total   1625519000                       # number of ReadExReq miss ticks (Tick)
system.l2cache.ReadExReq.accesses::cpu.data        15047                       # number of ReadExReq accesses(hits+misses) (Count)
system.l2cache.ReadExReq.accesses::total        15047                       # number of ReadExReq accesses(hits+misses) (Count)
system.l2cache.ReadExReq.missRate::cpu.data     0.997541                       # miss rate for ReadExReq accesses (Ratio)
system.l2cache.ReadExReq.missRate::total     0.997541                       # miss rate for ReadExReq accesses (Ratio)
system.l2cache.ReadExReq.avgMissLatency::cpu.data 108295.736176                       # average ReadExReq miss latency ((Tick/Count))
system.l2cache.ReadExReq.avgMissLatency::total 108295.736176                       # average ReadExReq miss latency ((Tick/Count))
system.l2cache.ReadExReq.mshrMisses::cpu.data        15010                       # number of ReadExReq MSHR misses (Count)
system.l2cache.ReadExReq.mshrMisses::total        15010                       # number of ReadExReq MSHR misses (Count)
system.l2cache.ReadExReq.mshrMissLatency::cpu.data   1325319000                       # number of ReadExReq MSHR miss ticks (Tick)
system.l2cache.ReadExReq.mshrMissLatency::total   1325319000                       # number of ReadExReq MSHR miss ticks (Tick)
system.l2cache.ReadExReq.mshrMissRate::cpu.data     0.997541                       # mshr miss rate for ReadExReq accesses (Ratio)
system.l2cache.ReadExReq.mshrMissRate::total     0.997541                       # mshr miss rate for ReadExReq accesses (Ratio)
system.l2cache.ReadExReq.avgMshrMissLatency::cpu.data 88295.736176                       # average ReadExReq mshr miss latency ((Tick/Count))
system.l2cache.ReadExReq.avgMshrMissLatency::total 88295.736176                       # average ReadExReq mshr miss latency ((Tick/Count))
system.l2cache.ReadSharedReq.hits::cpu.inst           71                       # number of ReadSharedReq hits (Count)
system.l2cache.ReadSharedReq.hits::cpu.data          301                       # number of ReadSharedReq hits (Count)
system.l2cache.ReadSharedReq.hits::total          372                       # number of ReadSharedReq hits (Count)
system.l2cache.ReadSharedReq.misses::cpu.inst         1912                       # number of ReadSharedReq misses (Count)
system.l2cache.ReadSharedReq.misses::cpu.data       740439                       # number of ReadSharedReq misses (Count)
system.l2cache.ReadSharedReq.misses::total       742351                       # number of ReadSharedReq misses (Count)
system.l2cache.ReadSharedReq.missLatency::cpu.inst    186837000                       # number of ReadSharedReq miss ticks (Tick)
system.l2cache.ReadSharedReq.missLatency::cpu.data  70683061000                       # number of ReadSharedReq miss ticks (Tick)
system.l2cache.ReadSharedReq.missLatency::total  70869898000                       # number of ReadSharedReq miss ticks (Tick)
system.l2cache.ReadSharedReq.accesses::cpu.inst         1983                       # number of ReadSharedReq accesses(hits+misses) (Count)
system.l2cache.ReadSharedReq.accesses::cpu.data       740740                       # number of ReadSharedReq accesses(hits+misses) (Count)
system.l2cache.ReadSharedReq.accesses::total       742723                       # number of ReadSharedReq accesses(hits+misses) (Count)
system.l2cache.ReadSharedReq.missRate::cpu.inst     0.964196                       # miss rate for ReadSharedReq accesses (Ratio)
system.l2cache.ReadSharedReq.missRate::cpu.data     0.999594                       # miss rate for ReadSharedReq accesses (Ratio)
system.l2cache.ReadSharedReq.missRate::total     0.999499                       # miss rate for ReadSharedReq accesses (Ratio)
system.l2cache.ReadSharedReq.avgMissLatency::cpu.inst 97718.096234                       # average ReadSharedReq miss latency ((Tick/Count))
system.l2cache.ReadSharedReq.avgMissLatency::cpu.data 95461.018396                       # average ReadSharedReq miss latency ((Tick/Count))
system.l2cache.ReadSharedReq.avgMissLatency::total 95466.831728                       # average ReadSharedReq miss latency ((Tick/Count))
system.l2cache.ReadSharedReq.mshrMisses::cpu.inst         1912                       # number of ReadSharedReq MSHR misses (Count)
system.l2cache.ReadSharedReq.mshrMisses::cpu.data       740439                       # number of ReadSharedReq MSHR misses (Count)
system.l2cache.ReadSharedReq.mshrMisses::total       742351                       # number of ReadSharedReq MSHR misses (Count)
system.l2cache.ReadSharedReq.mshrMissLatency::cpu.inst    148597000                       # number of ReadSharedReq MSHR miss ticks (Tick)
system.l2cache.ReadSharedReq.mshrMissLatency::cpu.data  55874281000                       # number of ReadSharedReq MSHR miss ticks (Tick)
system.l2cache.ReadSharedReq.mshrMissLatency::total  56022878000                       # number of ReadSharedReq MSHR miss ticks (Tick)
system.l2cache.ReadSharedReq.mshrMissRate::cpu.inst     0.964196                       # mshr miss rate for ReadSharedReq accesses (Ratio)
system.l2cache.ReadSharedReq.mshrMissRate::cpu.data     0.999594                       # mshr miss rate for ReadSharedReq accesses (Ratio)
system.l2cache.ReadSharedReq.mshrMissRate::total     0.999499                       # mshr miss rate for ReadSharedReq accesses (Ratio)
system.l2cache.ReadSharedReq.avgMshrMissLatency::cpu.inst 77718.096234                       # average ReadSharedReq mshr miss latency ((Tick/Count))
system.l2cache.ReadSharedReq.avgMshrMissLatency::cpu.data 75461.018396                       # average ReadSharedReq mshr miss latency ((Tick/Count))
system.l2cache.ReadSharedReq.avgMshrMissLatency::total 75466.831728                       # average ReadSharedReq mshr miss latency ((Tick/Count))
system.l2cache.WritebackDirty.hits::writebacks        79080                       # number of WritebackDirty hits (Count)
system.l2cache.WritebackDirty.hits::total        79080                       # number of WritebackDirty hits (Count)
system.l2cache.WritebackDirty.accesses::writebacks        79080                       # number of WritebackDirty accesses(hits+misses) (Count)
system.l2cache.WritebackDirty.accesses::total        79080                       # number of WritebackDirty accesses(hits+misses) (Count)
system.l2cache.power_state.pwrStateResidencyTicks::UNDEFINED 280416527000                       # Cumulative time (in ticks) in various power states (Tick)
system.l2cache.tags.tagsInUse              511.924288                       # Average ticks per tags in use ((Tick/Count))
system.l2cache.tags.totalRefs                 1308930                       # Total number of references to valid blocks. (Count)
system.l2cache.tags.sampledRefs                810205                       # Sample count of references to valid blocks. (Count)
system.l2cache.tags.avgRefs                  1.615554                       # Average number of references to valid blocks. ((Count/Count))
system.l2cache.tags.warmupTick                  86000                       # The tick when the warmup percentage was hit. (Tick)
system.l2cache.tags.occupancies::writebacks    85.170018                       # Average occupied blocks per tick, per requestor ((Count/Tick))
system.l2cache.tags.occupancies::cpu.inst     5.261630                       # Average occupied blocks per tick, per requestor ((Count/Tick))
system.l2cache.tags.occupancies::cpu.data   421.492641                       # Average occupied blocks per tick, per requestor ((Count/Tick))
system.l2cache.tags.avgOccs::writebacks      0.166348                       # Average percentage of cache occupancy ((Ratio/Tick))
system.l2cache.tags.avgOccs::cpu.inst        0.010277                       # Average percentage of cache occupancy ((Ratio/Tick))
system.l2cache.tags.avgOccs::cpu.data        0.823228                       # Average percentage of cache occupancy ((Ratio/Tick))
system.l2cache.tags.avgOccs::total           0.999852                       # Average percentage of cache occupancy ((Ratio/Tick))
system.l2cache.tags.occupanciesTaskId::1024          512                       # Occupied blocks per task id (Count)
system.l2cache.tags.ageTaskId_1024::0              74                       # Occupied blocks per task id, per block age (Count)
system.l2cache.tags.ageTaskId_1024::1             250                       # Occupied blocks per task id, per block age (Count)
system.l2cache.tags.ageTaskId_1024::2             107                       # Occupied blocks per task id, per block age (Count)
system.l2cache.tags.ageTaskId_1024::3              47                       # Occupied blocks per task id, per block age (Count)
system.l2cache.tags.ageTaskId_1024::4              34                       # Occupied blocks per task id, per block age (Count)
system.l2cache.tags.ratioOccsTaskId::1024            1                       # Ratio of occupied blocks and all blocks, per task id (Ratio)
system.l2cache.tags.tagAccesses               6870317                       # Number of tag accesses (Count)
system.l2cache.tags.dataAccesses              6870317                       # Number of data accesses (Count)
system.l2cache.tags.power_state.pwrStateResidencyTicks::UNDEFINED 280416527000                       # Cumulative time (in ticks) in various power states (Tick)
system.mem_ctrl.avgPriority_writebacks::samples     78934.00                       # Average QoS priority value for accepted requests (Count)
system.mem_ctrl.avgPriority_cpu.inst::samples      1912.00                       # Average QoS priority value for accepted requests (Count)
system.mem_ctrl.avgPriority_cpu.data::samples    751116.00                       # Average QoS priority value for accepted requests (Count)
system.mem_ctrl.priorityMinLatency       0.000000018750                       # per QoS priority minimum request to response latency (Second)
system.mem_ctrl.priorityMaxLatency       0.012442468500                       # per QoS priority maximum request to response latency (Second)
system.mem_ctrl.numReadWriteTurnArounds          4390                       # Number of turnarounds from READ to WRITE (Count)
system.mem_ctrl.numWriteReadTurnArounds          4390                       # Number of turnarounds from WRITE to READ (Count)
system.mem_ctrl.numStayReadState              1656771                       # Number of times bus staying in READ state (Count)
system.mem_ctrl.numStayWriteState               74625                       # Number of times bus staying in WRITE state (Count)
system.mem_ctrl.readReqs                       757361                       # Number of read requests accepted (Count)
system.mem_ctrl.writeReqs                       78947                       # Number of write requests accepted (Count)
system.mem_ctrl.readBursts                     757361                       # Number of controller read bursts, including those serviced by the write queue (Count)
system.mem_ctrl.writeBursts                     78947                       # Number of controller write bursts, including those merged in the write queue (Count)
system.mem_ctrl.servicedByWrQ                    4333                       # Number of controller read bursts serviced by the write queue (Count)
system.mem_ctrl.mergedWrBursts                     13                       # Number of controller write bursts merged with an existing one (Count)
system.mem_ctrl.neitherReadNorWriteReqs             0                       # Number of requests that are neither read nor write (Count)
system.mem_ctrl.avgRdQLen                        1.00                       # Average read queue length when enqueuing ((Count/Tick))
system.mem_ctrl.avgWrQLen                       24.35                       # Average write queue length when enqueuing ((Count/Tick))
system.mem_ctrl.numRdRetry                          0                       # Number of times read queue was full causing retry (Count)
system.mem_ctrl.numWrRetry                          0                       # Number of times write queue was full causing retry (Count)
system.mem_ctrl.readPktSize::0                      0                       # Read request sizes (log2) (Count)
system.mem_ctrl.readPktSize::1                      0                       # Read request sizes (log2) (Count)
system.mem_ctrl.readPktSize::2                      0                       # Read request sizes (log2) (Count)
system.mem_ctrl.readPktSize::3                      0                       # Read request sizes (log2) (Count)
system.mem_ctrl.readPktSize::4                      0                       # Read request sizes (log2) (Count)
system.mem_ctrl.readPktSize::5                      0                       # Read request sizes (log2) (Count)
system.mem_ctrl.readPktSize::6                 757361                       # Read request sizes (log2) (Count)
system.mem_ctrl.writePktSize::0                     0                       # Write request sizes (log2) (Count)
system.mem_ctrl.writePktSize::1                     0                       # Write request sizes (log2) (Count)
system.mem_ctrl.writePktSize::2                     0                       # Write request sizes (log2) (Count)
system.mem_ctrl.writePktSize::3                     0                       # Write request sizes (log2) (Count)
system.mem_ctrl.writePktSize::4                     0                       # Write request sizes (log2) (Count)
system.mem_ctrl.writePktSize::5                     0                       # Write request sizes (log2) (Count)
system.mem_ctrl.writePktSize::6                 78947                       # Write request sizes (log2) (Count)
system.mem_ctrl.rdQLenPdf::0                   753026                       # What read queue length does an incoming req see (Count)
system.mem_ctrl.rdQLenPdf::1                        2                       # What read queue length does an incoming req see (Count)
system.mem_ctrl.rdQLenPdf::2                        0                       # What read queue length does an incoming req see (Count)
system.mem_ctrl.rdQLenPdf::3                        0                       # What read queue length does an incoming req see (Count)
system.mem_ctrl.rdQLenPdf::4                        0                       # What read queue length does an incoming req see (Count)
system.mem_ctrl.rdQLenPdf::5                        0                       # What read queue length does an incoming req see (Count)
system.mem_ctrl.rdQLenPdf::6                        0                       # What read queue length does an incoming req see (Count)
system.mem_ctrl.rdQLenPdf::7                        0                       # What read queue length does an incoming req see (Count)
system.mem_ctrl.rdQLenPdf::8                        0                       # What read queue length does an incoming req see (Count)
system.mem_ctrl.rdQLenPdf::9                        0                       # What read queue length does an incoming req see (Count)
system.mem_ctrl.rdQLenPdf::10                       0                       # What read queue length does an incoming req see (Count)
system.mem_ctrl.rdQLenPdf::11                       0                       # What read queue length does an incoming req see (Count)
system.mem_ctrl.rdQLenPdf::12                       0                       # What read queue length does an incoming req see (Count)
system.mem_ctrl.rdQLenPdf::13                       0                       # What read queue length does an incoming req see (Count)
system.mem_ctrl.rdQLenPdf::14                       0                       # What read queue length does an incoming req see (Count)
system.mem_ctrl.rdQLenPdf::15                       0                       # What read queue length does an incoming req see (Count)
system.mem_ctrl.rdQLenPdf::16                       0                       # What read queue length does an incoming req see (Count)
system.mem_ctrl.rdQLenPdf::17                       0                       # What read queue length does an incoming req see (Count)
system.mem_ctrl.rdQLenPdf::18                       0                       # What read queue length does an incoming req see (Count)
system.mem_ctrl.rdQLenPdf::19                       0                       # What read queue length does an incoming req see (Count)
system.mem_ctrl.rdQLenPdf::20                       0                       # What read queue length does an incoming req see (Count)
system.mem_ctrl.rdQLenPdf::21                       0                       # What read queue length does an incoming req see (Count)
system.mem_ctrl.rdQLenPdf::22                       0                       # What read queue length does an incoming req see (Count)
system.mem_ctrl.rdQLenPdf::23                       0                       # What read queue length does an incoming req see (Count)
system.mem_ctrl.rdQLenPdf::24                       0                       # What read queue length does an incoming req see (Count)
system.mem_ctrl.rdQLenPdf::25                       0                       # What read queue length does an incoming req see (Count)
system.mem_ctrl.rdQLenPdf::26                       0                       # What read queue length does an incoming req see (Count)
system.mem_ctrl.rdQLenPdf::27                       0                       # What read queue length does an incoming req see (Count)
system.mem_ctrl.rdQLenPdf::28                       0                       # What read queue length does an incoming req see (Count)
system.mem_ctrl.rdQLenPdf::29                       0                       # What read queue length does an incoming req see (Count)
system.mem_ctrl.rdQLenPdf::30                       0                       # What read queue length does an incoming req see (Count)
system.mem_ctrl.rdQLenPdf::31                       0                       # What read queue length does an incoming req see (Count)
system.mem_ctrl.wrQLenPdf::0                        1                       # What write queue length does an incoming req see (Count)
system.mem_ctrl.wrQLenPdf::1                        1                       # What write queue length does an incoming req see (Count)
system.mem_ctrl.wrQLenPdf::2                        1                       # What write queue length does an incoming req see (Count)
system.mem_ctrl.wrQLenPdf::3                        1                       # What write queue length does an incoming req see (Count)
system.mem_ctrl.wrQLenPdf::4                        1                       # What write queue length does an incoming req see (Count)
system.mem_ctrl.wrQLenPdf::5                        1                       # What write queue length does an incoming req see (Count)
system.mem_ctrl.wrQLenPdf::6                        1                       # What write queue length does an incoming req see (Count)
system.mem_ctrl.wrQLenPdf::7                        1                       # What write queue length does an incoming req see (Count)
system.mem_ctrl.wrQLenPdf::8                        1                       # What write queue length does an incoming req see (Count)
system.mem_ctrl.wrQLenPdf::9                        1                       # What write queue length does an incoming req see (Count)
system.mem_ctrl.wrQLenPdf::10                       1                       # What write queue length does an incoming req see (Count)
system.mem_ctrl.wrQLenPdf::11                       1                       # What write queue length does an incoming req see (Count)
system.mem_ctrl.wrQLenPdf::12                       1                       # What write queue length does an incoming req see (Count)
system.mem_ctrl.wrQLenPdf::13                       1                       # What write queue length does an incoming req see (Count)
system.mem_ctrl.wrQLenPdf::14                       1                       # What write queue length does an incoming req see (Count)
system.mem_ctrl.wrQLenPdf::15                    4318                       # What write queue length does an incoming req see (Count)
system.mem_ctrl.wrQLenPdf::16                    4322                       # What write queue length does an incoming req see (Count)
[...]
system.mem_ctrl.dram.bytesWritten::total      5052608                       # Number of bytes written to this memory (Byte)
system.mem_ctrl.dram.numReads::cpu.inst          1912                       # Number of read requests responded to by this memory (Count)
system.mem_ctrl.dram.numReads::cpu.data        755449                       # Number of read requests responded to by this memory (Count)
system.mem_ctrl.dram.numReads::total           757361                       # Number of read requests responded to by this memory (Count)
system.mem_ctrl.dram.numWrites::writebacks        78947                       # Number of write requests responded to by this memory (Count)
system.mem_ctrl.dram.numWrites::total           78947                       # Number of write requests responded to by this memory (Count)
system.mem_ctrl.dram.bwRead::cpu.inst          436379                       # Total read bandwidth from this memory ((Byte/Second))
system.mem_ctrl.dram.bwRead::cpu.data       172417569                       # Total read bandwidth from this memory ((Byte/Second))
system.mem_ctrl.dram.bwRead::total          172853949                       # Total read bandwidth from this memory ((Byte/Second))
system.mem_ctrl.dram.bwInstRead::cpu.inst       436379                       # Instruction read bandwidth from this memory ((Byte/Second))
system.mem_ctrl.dram.bwInstRead::total         436379                       # Instruction read bandwidth from this memory ((Byte/Second))
system.mem_ctrl.dram.bwWrite::writebacks     18018225                       # Write bandwidth from this memory ((Byte/Second))
system.mem_ctrl.dram.bwWrite::total          18018225                       # Write bandwidth from this memory ((Byte/Second))
system.mem_ctrl.dram.bwTotal::writebacks     18018225                       # Total bandwidth to/from this memory ((Byte/Second))
system.mem_ctrl.dram.bwTotal::cpu.inst         436379                       # Total bandwidth to/from this memory ((Byte/Second))
system.mem_ctrl.dram.bwTotal::cpu.data      172417569                       # Total bandwidth to/from this memory ((Byte/Second))
system.mem_ctrl.dram.bwTotal::total         190872174                       # Total bandwidth to/from this memory ((Byte/Second))
system.mem_ctrl.dram.readBursts                753028                       # Number of DRAM read bursts (Count)
system.mem_ctrl.dram.writeBursts                78913                       # Number of DRAM write bursts (Count)
system.mem_ctrl.dram.perBankRdBursts::0         45759                       # Per bank write bursts (Count)
system.mem_ctrl.dram.perBankRdBursts::1         46503                       # Per bank write bursts (Count)
system.mem_ctrl.dram.perBankRdBursts::2         47512                       # Per bank write bursts (Count)
system.mem_ctrl.dram.perBankRdBursts::3         45548                       # Per bank write bursts (Count)
system.mem_ctrl.dram.perBankRdBursts::4         45933                       # Per bank write bursts (Count)
system.mem_ctrl.dram.perBankRdBursts::5         47208                       # Per bank write bursts (Count)
system.mem_ctrl.dram.perBankRdBursts::6         47064                       # Per bank write bursts (Count)
system.mem_ctrl.dram.perBankRdBursts::7         47080                       # Per bank write bursts (Count)
system.mem_ctrl.dram.perBankRdBursts::8         46289                       # Per bank write bursts (Count)
system.mem_ctrl.dram.perBankRdBursts::9         45701                       # Per bank write bursts (Count)
system.mem_ctrl.dram.perBankRdBursts::10        46306                       # Per bank write bursts (Count)
system.mem_ctrl.dram.perBankRdBursts::11        45599                       # Per bank write bursts (Count)
system.mem_ctrl.dram.perBankRdBursts::12        45803                       # Per bank write bursts (Count)
system.mem_ctrl.dram.perBankRdBursts::13        54097                       # Per bank write bursts (Count)
system.mem_ctrl.dram.perBankRdBursts::14        50041                       # Per bank write bursts (Count)
system.mem_ctrl.dram.perBankRdBursts::15        46585                       # Per bank write bursts (Count)
system.mem_ctrl.dram.perBankWrBursts::0          4630                       # Per bank write bursts (Count)
system.mem_ctrl.dram.perBankWrBursts::1          5009                       # Per bank write bursts (Count)
system.mem_ctrl.dram.perBankWrBursts::2          5210                       # Per bank write bursts (Count)
system.mem_ctrl.dram.perBankWrBursts::3          4620                       # Per bank write bursts (Count)
system.mem_ctrl.dram.perBankWrBursts::4          4817                       # Per bank write bursts (Count)
system.mem_ctrl.dram.perBankWrBursts::5          4812                       # Per bank write bursts (Count)
system.mem_ctrl.dram.perBankWrBursts::6          4748                       # Per bank write bursts (Count)
system.mem_ctrl.dram.perBankWrBursts::7          4820                       # Per bank write bursts (Count)
system.mem_ctrl.dram.perBankWrBursts::8          4740                       # Per bank write bursts (Count)
system.mem_ctrl.dram.perBankWrBursts::9          4656                       # Per bank write bursts (Count)
system.mem_ctrl.dram.perBankWrBursts::10         4748                       # Per bank write bursts (Count)
system.mem_ctrl.dram.perBankWrBursts::11         4674                       # Per bank write bursts (Count)
system.mem_ctrl.dram.perBankWrBursts::12         4689                       # Per bank write bursts (Count)
system.mem_ctrl.dram.perBankWrBursts::13         5928                       # Per bank write bursts (Count)
system.mem_ctrl.dram.perBankWrBursts::14         5796                       # Per bank write bursts (Count)
system.mem_ctrl.dram.perBankWrBursts::15         5016                       # Per bank write bursts (Count)
system.mem_ctrl.dram.totQLat               4429403000                       # Total ticks spent queuing (Tick)
system.mem_ctrl.dram.totBusLat             3765140000                       # Total ticks spent in databus transfers (Tick)
system.mem_ctrl.dram.totMemAccLat         18548678000                       # Total ticks spent from burst creation until serviced by the DRAM (Tick)
system.mem_ctrl.dram.avgQLat                  5882.12                       # Average queueing delay per DRAM burst ((Tick/Count))
system.mem_ctrl.dram.avgBusLat                5000.00                       # Average bus latency per DRAM burst ((Tick/Count))
system.mem_ctrl.dram.avgMemAccLat            24632.12                       # Average memory access latency per DRAM burst ((Tick/Count))
system.mem_ctrl.dram.readRowHits               632814                       # Number of row buffer hits during reads (Count)
system.mem_ctrl.dram.writeRowHits               69650                       # Number of row buffer hits during writes (Count)
system.mem_ctrl.dram.readRowHitRate             84.04                       # Row buffer hit rate for reads (Ratio)
system.mem_ctrl.dram.writeRowHitRate            88.26                       # Row buffer hit rate for writes (Ratio)
system.mem_ctrl.dram.bytesPerActivate::samples       129472                       # Bytes accessed per row activation (Byte)
system.mem_ctrl.dram.bytesPerActivate::mean   411.232823                       # Bytes accessed per row activation (Byte)
system.mem_ctrl.dram.bytesPerActivate::gmean   341.101085                       # Bytes accessed per row activation (Byte)
system.mem_ctrl.dram.bytesPerActivate::stdev   199.334402                       # Bytes accessed per row activation (Byte)
system.mem_ctrl.dram.bytesPerActivate::0-127        12935      9.99%      9.99% # Bytes accessed per row activation (Byte)
system.mem_ctrl.dram.bytesPerActivate::128-255        16217     12.53%     22.52% # Bytes accessed per row activation (Byte)
system.mem_ctrl.dram.bytesPerActivate::256-383        10525      8.13%     30.65% # Bytes accessed per row activation (Byte)
system.mem_ctrl.dram.bytesPerActivate::384-511        17550     13.56%     44.20% # Bytes accessed per row activation (Byte)
system.mem_ctrl.dram.bytesPerActivate::512-639        67790     52.36%     96.56% # Bytes accessed per row activation (Byte)
system.mem_ctrl.dram.bytesPerActivate::640-767          248      0.19%     96.75% # Bytes accessed per row activation (Byte)
system.mem_ctrl.dram.bytesPerActivate::768-895          236      0.18%     96.93% # Bytes accessed per row activation (Byte)
system.mem_ctrl.dram.bytesPerActivate::896-1023          254      0.20%     97.13% # Bytes accessed per row activation (Byte)
system.mem_ctrl.dram.bytesPerActivate::1024-1151         3717      2.87%    100.00% # Bytes accessed per row activation (Byte)
system.mem_ctrl.dram.bytesPerActivate::total       129472                       # Bytes accessed per row activation (Byte)
system.mem_ctrl.dram.dramBytesRead           48193792                       # Total bytes read (Byte)
system.mem_ctrl.dram.dramBytesWritten         5050432                       # Total bytes written (Byte)
system.mem_ctrl.dram.avgRdBW               171.865020                       # Average DRAM read bandwidth in MiBytes/s ((Byte/Second))
system.mem_ctrl.dram.avgWrBW                18.010465                       # Average DRAM write bandwidth in MiBytes/s ((Byte/Second))
system.mem_ctrl.dram.peakBW                  12800.00                       # Theoretical peak bandwidth in MiByte/s ((Byte/Second))
system.mem_ctrl.dram.busUtil                     1.48                       # Data bus utilization in percentage (Ratio)
system.mem_ctrl.dram.busUtilRead                 1.34                       # Data bus utilization in percentage for reads (Ratio)
system.mem_ctrl.dram.busUtilWrite                0.14                       # Data bus utilization in percentage for writes (Ratio)
system.mem_ctrl.dram.pageHitRate                84.44                       # Row buffer hit rate, read and write combined (Ratio)
system.mem_ctrl.dram.power_state.pwrStateResidencyTicks::UNDEFINED 280416527000                       # Cumulative time (in ticks) in various power states (Tick)
system.mem_ctrl.dram.rank0.actEnergy        465699360                       # Energy for activate commands per rank (pJ) (Joule)
system.mem_ctrl.dram.rank0.preEnergy        247513695                       # Energy for precharge commands per rank (pJ) (Joule)
system.mem_ctrl.dram.rank0.readEnergy      2660413980                       # Energy for read commands per rank (pJ) (Joule)
system.mem_ctrl.dram.rank0.writeEnergy      201836520                       # Energy for write commands per rank (pJ) (Joule)
system.mem_ctrl.dram.rank0.refreshEnergy 22135644960.000004                       # Energy for refresh commands per rank (pJ) (Joule)
system.mem_ctrl.dram.rank0.actBackEnergy  75248290650                       # Energy for active background per rank (pJ) (Joule)
system.mem_ctrl.dram.rank0.preBackEnergy  44312964960                       # Energy for precharge background per rank (pJ) (Joule)
system.mem_ctrl.dram.rank0.actPowerDownEnergy            0                       # Energy for active power-down per rank (pJ) (Joule)
system.mem_ctrl.dram.rank0.prePowerDownEnergy            0                       # Energy for precharge power-down per rank (pJ) (Joule)
system.mem_ctrl.dram.rank0.selfRefreshEnergy            0                       # Energy for self refresh per rank (pJ) (Joule)
system.mem_ctrl.dram.rank0.totalEnergy   145272364125                       # Total energy per rank (pJ) (Joule)
system.mem_ctrl.dram.rank0.averagePower    518.059209                       # Core power per rank (mW) (Watt)
system.mem_ctrl.dram.rank0.totalIdleTime            0                       # Total Idle time Per DRAM Rank (Tick)
system.mem_ctrl.dram.rank0.pwrStateTime::IDLE 114537179750                       # Time in different power states (Tick)
system.mem_ctrl.dram.rank0.pwrStateTime::REF   9363640000                       # Time in different power states (Tick)
system.mem_ctrl.dram.rank0.pwrStateTime::SREF            0                       # Time in different power states (Tick)
system.mem_ctrl.dram.rank0.pwrStateTime::PRE_PDN            0                       # Time in different power states (Tick)
system.mem_ctrl.dram.rank0.pwrStateTime::ACT 156515707250                       # Time in different power states (Tick)
system.mem_ctrl.dram.rank0.pwrStateTime::ACT_PDN            0                       # Time in different power states (Tick)
system.mem_ctrl.dram.rank1.actEnergy        458766420                       # Energy for activate commands per rank (pJ) (Joule)
system.mem_ctrl.dram.rank1.preEnergy        243832545                       # Energy for precharge commands per rank (pJ) (Joule)
system.mem_ctrl.dram.rank1.readEnergy      2716205940                       # Energy for read commands per rank (pJ) (Joule)
system.mem_ctrl.dram.rank1.writeEnergy      210089340                       # Energy for write commands per rank (pJ) (Joule)
system.mem_ctrl.dram.rank1.refreshEnergy 22135644960.000004                       # Energy for refresh commands per rank (pJ) (Joule)
system.mem_ctrl.dram.rank1.actBackEnergy  74864612820                       # Energy for active background per rank (pJ) (Joule)
system.mem_ctrl.dram.rank1.preBackEnergy  44636062080                       # Energy for precharge background per rank (pJ) (Joule)
system.mem_ctrl.dram.rank1.actPowerDownEnergy            0                       # Energy for active power-down per rank (pJ) (Joule)
system.mem_ctrl.dram.rank1.prePowerDownEnergy            0                       # Energy for precharge power-down per rank (pJ) (Joule)
system.mem_ctrl.dram.rank1.selfRefreshEnergy            0                       # Energy for self refresh per rank (pJ) (Joule)
system.mem_ctrl.dram.rank1.totalEnergy   145265214105                       # Total energy per rank (pJ) (Joule)
system.mem_ctrl.dram.rank1.averagePower    518.033711                       # Core power per rank (mW) (Watt)
system.mem_ctrl.dram.rank1.totalIdleTime            0                       # Total Idle time Per DRAM Rank (Tick)
system.mem_ctrl.dram.rank1.pwrStateTime::IDLE 115391956750                       # Time in different power states (Tick)
system.mem_ctrl.dram.rank1.pwrStateTime::REF   9363640000                       # Time in different power states (Tick)
system.mem_ctrl.dram.rank1.pwrStateTime::SREF            0                       # Time in different power states (Tick)
system.mem_ctrl.dram.rank1.pwrStateTime::PRE_PDN            0                       # Time in different power states (Tick)
system.mem_ctrl.dram.rank1.pwrStateTime::ACT 155660930250                       # Time in different power states (Tick)
system.mem_ctrl.dram.rank1.pwrStateTime::ACT_PDN            0                       # Time in different power states (Tick)
system.mem_ctrl.power_state.pwrStateResidencyTicks::UNDEFINED 280416527000                       # Cumulative time (in ticks) in various power states (Tick)
system.membus.transDist::ReadResp              742351                       # Transaction distribution (Count)
system.membus.transDist::WritebackDirty         78947                       # Transaction distribution (Count)
system.membus.transDist::CleanEvict            677737                       # Transaction distribution (Count)
system.membus.transDist::ReadExReq              15010                       # Transaction distribution (Count)
system.membus.transDist::ReadExResp             15010                       # Transaction distribution (Count)
system.membus.transDist::ReadSharedReq         742351                       # Transaction distribution (Count)
system.membus.pktCount_system.l2cache.mem_side_port::system.mem_ctrl.port      2271406                       # Packet count per connected requestor and responder (Count)
system.membus.pktCount_system.l2cache.mem_side_port::total      2271406                       # Packet count per connected requestor and responder (Count)
system.membus.pktCount::total                 2271406                       # Packet count per connected requestor and responder (Count)
system.membus.pktSize_system.l2cache.mem_side_port::system.mem_ctrl.port     53523712                       # Cumulative packet size per connected requestor and responder (Byte)
system.membus.pktSize_system.l2cache.mem_side_port::total     53523712                       # Cumulative packet size per connected requestor and responder (Byte)
system.membus.pktSize::total                 53523712                       # Cumulative packet size per connected requestor and responder (Byte)
system.membus.snoops                                0                       # Total snoops (Count)
system.membus.snoopTraffic                          0                       # Total snoop traffic (Byte)
system.membus.snoopFanout::samples             757361                       # Request fanout histogram (Count)
system.membus.snoopFanout::mean                     0                       # Request fanout histogram (Count)
system.membus.snoopFanout::stdev                    0                       # Request fanout histogram (Count)
system.membus.snoopFanout::underflows               0      0.00%      0.00% # Request fanout histogram (Count)
system.membus.snoopFanout::0                   757361    100.00%    100.00% # Request fanout histogram (Count)
system.membus.snoopFanout::1                        0      0.00%    100.00% # Request fanout histogram (Count)
system.membus.snoopFanout::overflows                0      0.00%    100.00% # Request fanout histogram (Count)
system.membus.snoopFanout::min_value                0                       # Request fanout histogram (Count)
system.membus.snoopFanout::max_value                0                       # Request fanout histogram (Count)
system.membus.snoopFanout::total               757361                       # Request fanout histogram (Count)
system.membus.power_state.pwrStateResidencyTicks::UNDEFINED 280416527000                       # Cumulative time (in ticks) in various power states (Tick)
system.membus.reqLayer2.occupancy          1829833000                       # Layer occupancy (ticks) (Tick)
system.membus.reqLayer2.utilization               0.0                       # Layer utilization (Ratio)
system.membus.respLayer0.occupancy         4004194000                       # Layer occupancy (ticks) (Tick)
system.membus.respLayer0.utilization              0.0                       # Layer utilization (Ratio)
system.membus.snoop_filter.totRequests        1514045                       # Total number of requests made to the snoop filter. (Count)
system.membus.snoop_filter.hitSingleRequests       756684                       # Number of requests hitting in the snoop filter with a single holder of the requested data. (Count)
system.membus.snoop_filter.hitMultiRequests            0                       # Number of requests hitting in the snoop filter with multiple (>1) holders of the requested data. (Count)
system.membus.snoop_filter.totSnoops                0                       # Total number of snoops made to the snoop filter. (Count)
system.membus.snoop_filter.hitSingleSnoops            0                       # Number of snoops hitting in the snoop filter with a single holder of the requested data. (Count)
system.membus.snoop_filter.hitMultiSnoops            0                       # Number of snoops hitting in the snoop filter with multiple (>1) holders of the requested data. (Count)
system.workload.inst.arm                            0                       # number of arm instructions executed (Count)
system.workload.inst.quiesce                        0                       # number of quiesce instructions executed (Count)

---------- End Simulation Statistics   ----------
