
---------- Begin Simulation Statistics ----------
simSeconds                                   0.030515                       # Number of seconds simulated (Second)
simTicks                                  30515406000                       # Number of ticks simulated (Tick)
finalTick                                 30515406000                       # Number of ticks from beginning of simulation (restored from checkpoints and never reset) (Tick)
simFreq                                  1000000000000                       # The number of ticks per simulated second ((Tick/Second))
hostSeconds                                     18.69                       # Real time elapsed on the host (Second)
hostTickRate                               1632906609                       # The number of ticks simulated per host second (ticks/s) ((Tick/Second))
hostMemory                                     696132                       # Number of bytes of host memory used (Byte)
simInsts                                      8038489                       # Number of instructions simulated (Count)
simOps                                       15430304                       # Number of ops (including micro ops) simulated (Count)
hostInstRate                                   430094                       # Simulator instruction rate (inst/s) ((Count/Second))
hostOpRate                                     825579                       # Simulator op (including micro ops) rate (op/s) ((Count/Second))
system.clk_domain.clock                          1000                       # Clock period in ticks (Tick)
system.clk_domain.voltage_domain.voltage            1                       # Voltage in Volts (Volt)
system.cpu.numCycles                         30515406                       # Number of cpu cycles simulated (Cycle)
system.cpu.cpi                               3.796121                       # CPI: cycles per instruction (core level) ((Cycle/Count))
system.cpu.ipc                               0.263427                       # IPC: instructions per cycle (core level) ((Count/Cycle))
system.cpu.numWorkItemsStarted                      0                       # Number of work items this cpu started (Count)
system.cpu.numWorkItemsCompleted                    0                       # Number of work items this cpu completed (Count)
system.cpu.commitStats0.numInsts              8038576                       # Number of instructions committed (thread level) (Count)
system.cpu.commitStats0.numOps               15430630                       # Number of ops (including micro ops) committed (thread level) (Count)
system.cpu.commitStats0.numInstsNotNOP              0                       # Number of instructions committed excluding NOPs or prefetches (Count)
system.cpu.commitStats0.numOpsNotNOP                0                       # Number of Ops (including micro ops) Simulated (Count)
system.cpu.commitStats0.cpi                  3.796121                       # CPI: cycles per instruction (thread level) ((Cycle/Count))
system.cpu.commitStats0.ipc                  0.263427                       # IPC: instructions per cycle (thread level) ((Count/Cycle))
system.cpu.commitStats0.numMemRefs                  0                       # Number of memory references committed (Count)
system.cpu.commitStats0.numFpInsts            1535363                       # Number of float instructions (Count)
system.cpu.commitStats0.numIntInsts          14201668                       # Number of integer instructions (Count)
system.cpu.commitStats0.numLoadInsts          2493782                       # Number of load instructions (Count)
system.cpu.commitStats0.numStoreInsts         1239702                       # Number of store instructions (Count)
system.cpu.commitStats0.numVecInsts                 0                       # Number of vector instructions (Count)
system.cpu.commitStats0.committedInstType::No_OpClass       408836      2.65%      2.65% # Class of committed instruction. (Count)
system.cpu.commitStats0.committedInstType::IntAlu     10263389     66.51%     69.16% # Class of committed instruction. (Count)
system.cpu.commitStats0.committedInstType::IntMult           25      0.00%     69.16% # Class of committed instruction. (Count)
system.cpu.commitStats0.committedInstType::IntDiv         1771      0.01%     69.17% # Class of committed instruction. (Count)
system.cpu.commitStats0.committedInstType::FloatAdd       305783      1.98%     71.16% # Class of committed instruction. (Count)
system.cpu.commitStats0.committedInstType::FloatCmp            0      0.00%     71.16% # Class of committed instruction. (Count)
system.cpu.commitStats0.committedInstType::FloatCvt           32      0.00%     71.16% # Class of committed instruction. (Count)
system.cpu.commitStats0.committedInstType::FloatMult            0      0.00%     71.16% # Class of committed instruction. (Count)
system.cpu.commitStats0.committedInstType::FloatMultAcc            0      0.00%     71.16% # Class of committed instruction. (Count)
system.cpu.commitStats0.committedInstType::FloatDiv            0      0.00%     71.16% # Class of committed instruction. (Count)
system.cpu.commitStats0.committedInstType::FloatMisc            0      0.00%     71.16% # Class of committed instruction. (Count)
system.cpu.commitStats0.committedInstType::FloatSqrt            0      0.00%     71.16% # Class of committed instruction. (Count)
system.cpu.commitStats0.committedInstType::SimdAdd          572      0.00%     71.16% # Class of committed instruction. (Count)
system.cpu.commitStats0.committedInstType::SimdAddAcc            0      0.00%     71.16% # Class of committed instruction. (Count)
system.cpu.commitStats0.committedInstType::SimdAlu       204796      1.33%     72.49% # Class of committed instruction. (Count)
system.cpu.commitStats0.committedInstType::SimdCmp            0      0.00%     72.49% # Class of committed instruction. (Count)
system.cpu.commitStats0.committedInstType::SimdCvt         1426      0.01%     72.50% # Class of committed instruction. (Count)
system.cpu.commitStats0.committedInstType::SimdMisc       306750      1.99%     74.48% # Class of committed instruction. (Count)
system.cpu.commitStats0.committedInstType::SimdMult            0      0.00%     74.48% # Class of committed instruction. (Count)
system.cpu.commitStats0.committedInstType::SimdMultAcc            0      0.00%     74.48% # Class of committed instruction. (Count)
system.cpu.commitStats0.committedInstType::SimdMatMultAcc            0      0.00%     74.48% # Class of committed instruction. (Count)
system.cpu.commitStats0.committedInstType::SimdShift          226      0.00%     74.49% # Class of committed instruction. (Count)
system.cpu.commitStats0.committedInstType::SimdShiftAcc            0      0.00%     74.49% # Class of committed instruction. (Count)
system.cpu.commitStats0.committedInstType::SimdDiv            0      0.00%     74.49% # Class of committed instruction. (Count)
system.cpu.commitStats0.committedInstType::SimdSqrt            0      0.00%     74.49% # Class of committed instruction. (Count)
system.cpu.commitStats0.committedInstType::SimdFloatAdd            0      0.00%     74.49% # Class of committed instruction. (Count)
system.cpu.commitStats0.committedInstType::SimdFloatAlu            0      0.00%     74.49% # Class of committed instruction. (Count)
system.cpu.commitStats0.committedInstType::SimdFloatCmp            0      0.00%     74.49% # Class of committed instruction. (Count)
system.cpu.commitStats0.committedInstType::SimdFloatCvt       101770      0.66%     75.15% # Class of committed instruction. (Count)
system.cpu.commitStats0.committedInstType::SimdFloatDiv       101770      0.66%     75.80% # Class of committed instruction. (Count)
system.cpu.commitStats0.committedInstType::SimdFloatMisc            0      0.00%     75.80% # Class of committed instruction. (Count)
system.cpu.commitStats0.committedInstType::SimdFloatMult            0      0.00%     75.80% # Class of committed instruction. (Count)
system.cpu.commitStats0.committedInstType::SimdFloatMultAcc            0      0.00%     75.80% # Class of committed instruction. (Count)
system.cpu.commitStats0.committedInstType::SimdFloatMatMultAcc            0      0.00%     75.80% # Class of committed instruction. (Count)
system.cpu.commitStats0.committedInstType::SimdFloatSqrt            0      0.00%     75.80% # Class of committed instruction. (Count)
system.cpu.commitStats0.committedInstType::SimdReduceAdd            0      0.00%     75.80% # Class of committed instruction. (Count)
system.cpu.commitStats0.committedInstType::SimdReduceAlu            0      0.00%     75.80% # Class of committed instruction. (Count)
system.cpu.commitStats0.committedInstType::SimdReduceCmp            0      0.00%     75.80% # Class of committed instruction. (Count)
system.cpu.commitStats0.committedInstType::SimdFloatReduceAdd            0      0.00%     75.80% # Class of committed instruction. (Count)
system.cpu.commitStats0.committedInstType::SimdFloatReduceCmp            0      0.00%     75.80% # Class of committed instruction. (Count)
system.cpu.commitStats0.committedInstType::SimdAes            0      0.00%     75.80% # Class of committed instruction. (Count)
system.cpu.commitStats0.committedInstType::SimdAesMix            0      0.00%     75.80% # Class of committed instruction. (Count)
system.cpu.commitStats0.committedInstType::SimdSha1Hash            0      0.00%     75.80% # Class of committed instruction. (Count)
system.cpu.commitStats0.committedInstType::SimdSha1Hash2            0      0.00%     75.80% # Class of committed instruction. (Count)
system.cpu.commitStats0.committedInstType::SimdSha256Hash            0      0.00%     75.80% # Class of committed instruction. (Count)
system.cpu.commitStats0.committedInstType::SimdSha256Hash2            0      0.00%     75.80% # Class of committed instruction. (Count)
system.cpu.commitStats0.committedInstType::SimdShaSigma2            0      0.00%     75.80% # Class of committed instruction. (Count)
system.cpu.commitStats0.committedInstType::SimdShaSigma3            0      0.00%     75.80% # Class of committed instruction. (Count)
system.cpu.commitStats0.committedInstType::SimdPredAlu            0      0.00%     75.80% # Class of committed instruction. (Count)
system.cpu.commitStats0.committedInstType::Matrix            0      0.00%     75.80% # Class of committed instruction. (Count)
system.cpu.commitStats0.committedInstType::MatrixMov            0      0.00%     75.80% # Class of committed instruction. (Count)
system.cpu.commitStats0.committedInstType::MatrixOP            0      0.00%     75.80% # Class of committed instruction. (Count)
system.cpu.commitStats0.committedInstType::MemRead      2390454     15.49%     91.30% # Class of committed instruction. (Count)
system.cpu.commitStats0.committedInstType::MemWrite       933000      6.05%     97.34% # Class of committed instruction. (Count)
system.cpu.commitStats0.committedInstType::FloatMemRead       103328      0.67%     98.01% # Class of committed instruction. (Count)
system.cpu.commitStats0.committedInstType::FloatMemWrite       306702      1.99%    100.00% # Class of committed instruction. (Count)
system.cpu.commitStats0.committedInstType::IprAccess            0      0.00%    100.00% # Class of committed instruction. (Count)
system.cpu.commitStats0.committedInstType::InstPrefetch            0      0.00%    100.00% # Class of committed instruction. (Count)
system.cpu.commitStats0.committedInstType::SimdUnitStrideLoad            0      0.00%    100.00% # Class of committed instruction. (Count)
system.cpu.commitStats0.committedInstType::SimdUnitStrideStore            0      0.00%    100.00% # Class of committed instruction. (Count)
system.cpu.commitStats0.committedInstType::SimdUnitStrideMaskLoad            0      0.00%    100.00% # Class of committed instruction. (Count)
system.cpu.commitStats0.committedInstType::SimdUnitStrideMaskStore            0      0.00%    100.00% # Class of committed instruction. (Count)
system.cpu.commitStats0.committedInstType::SimdStridedLoad            0      0.00%    100.00% # Class of committed instruction. (Count)
system.cpu.commitStats0.committedInstType::SimdStridedStore            0      0.00%    100.00% # Class of committed instruction. (Count)
system.cpu.commitStats0.committedInstType::SimdIndexedLoad            0      0.00%    100.00% # Class of committed instruction. (Count)
system.cpu.commitStats0.committedInstType::SimdIndexedStore            0      0.00%    100.00% # Class of committed instruction. (Count)
system.cpu.commitStats0.committedInstType::SimdWholeRegisterLoad            0      0.00%    100.00% # Class of committed instruction. (Count)
system.cpu.commitStats0.committedInstType::SimdWholeRegisterStore            0      0.00%    100.00% # Class of committed instruction. (Count)
system.cpu.commitStats0.committedInstType::SimdUnitStrideFaultOnlyFirstLoad            0      0.00%    100.00% # Class of committed instruction. (Count)
system.cpu.commitStats0.committedInstType::SimdUnitStrideSegmentedLoad            0      0.00%    100.00% # Class of committed instruction. (Count)
system.cpu.commitStats0.committedInstType::SimdUnitStrideSegmentedStore            0      0.00%    100.00% # Class of committed instruction. (Count)
system.cpu.commitStats0.committedInstType::SimdExt            0      0.00%    100.00% # Class of committed instruction. (Count)
system.cpu.commitStats0.committedInstType::SimdFloatExt            0      0.00%    100.00% # Class of committed instruction. (Count)
system.cpu.commitStats0.committedInstType::SimdConfig            0      0.00%    100.00% # Class of committed instruction. (Count)
system.cpu.commitStats0.committedInstType::total     15430630                       # Class of committed instruction. (Count)
system.cpu.commitStats0.committedControl::IsControl      1767664                       # Class of control type instructions committed (Count)
system.cpu.commitStats0.committedControl::IsDirectControl      1358813                       # Class of control type instructions committed (Count)
system.cpu.commitStats0.committedControl::IsIndirectControl       408823                       # Class of control type instructions committed (Count)
system.cpu.commitStats0.committedControl::IsCondControl       952045                       # Class of control type instructions committed (Count)
system.cpu.commitStats0.committedControl::IsUncondControl       815591                       # Class of control type instructions committed (Count)
system.cpu.commitStats0.committedControl::IsCall       306502                       # Class of control type instructions committed (Count)
system.cpu.commitStats0.committedControl::IsReturn       306496                       # Class of control type instructions committed (Count)
system.cpu.dcache.demandHits::cpu.data        3716834                       # number of demand (read+write) hits (Count)
system.cpu.dcache.demandHits::total           3716834                       # number of demand (read+write) hits (Count)
system.cpu.dcache.overallHits::cpu.data       3716834                       # number of overall hits (Count)
system.cpu.dcache.overallHits::total          3716834                       # number of overall hits (Count)
system.cpu.dcache.demandMisses::cpu.data        16400                       # number of demand (read+write) misses (Count)
system.cpu.dcache.demandMisses::total           16400                       # number of demand (read+write) misses (Count)
system.cpu.dcache.overallMisses::cpu.data        16400                       # number of overall misses (Count)
system.cpu.dcache.overallMisses::total          16400                       # number of overall misses (Count)
system.cpu.dcache.demandMissLatency::cpu.data   1656291000                       # number of demand (read+write) miss ticks (Tick)
system.cpu.dcache.demandMissLatency::total   1656291000                       # number of demand (read+write) miss ticks (Tick)
system.cpu.dcache.overallMissLatency::cpu.data   1656291000                       # number of overall miss ticks (Tick)
system.cpu.dcache.overallMissLatency::total   1656291000                       # number of overall miss ticks (Tick)
system.cpu.dcache.demandAccesses::cpu.data      3733234                       # number of demand (read+write) accesses (Count)
system.cpu.dcache.demandAccesses::total       3733234                       # number of demand (read+write) accesses (Count)
system.cpu.dcache.overallAccesses::cpu.data      3733234                       # number of overall (read+write) accesses (Count)
system.cpu.dcache.overallAccesses::total      3733234                       # number of overall (read+write) accesses (Count)
system.cpu.dcache.demandMissRate::cpu.data     0.004393                       # miss rate for demand accesses (Ratio)
system.cpu.dcache.demandMissRate::total      0.004393                       # miss rate for demand accesses (Ratio)
system.cpu.dcache.overallMissRate::cpu.data     0.004393                       # miss rate for overall accesses (Ratio)
system.cpu.dcache.overallMissRate::total     0.004393                       # miss rate for overall accesses (Ratio)
system.cpu.dcache.demandAvgMissLatency::cpu.data 100993.353659                       # average overall miss latency in ticks ((Tick/Count))
system.cpu.dcache.demandAvgMissLatency::total 100993.353659                       # average overall miss latency in ticks ((Tick/Count))
system.cpu.dcache.overallAvgMissLatency::cpu.data 100993.353659                       # average overall miss latency ((Tick/Count))
system.cpu.dcache.overallAvgMissLatency::total 100993.353659                       # average overall miss latency ((Tick/Count))
system.cpu.dcache.blockedCycles::no_mshrs            0                       # number of cycles access was blocked (Cycle)
system.cpu.dcache.blockedCycles::no_targets            0                       # number of cycles access was blocked (Cycle)
system.cpu.dcache.blockedCauses::no_mshrs            0                       # number of times access was blocked (Count)
system.cpu.dcache.blockedCauses::no_targets            0                       # number of times access was blocked (Count)
system.cpu.dcache.avgBlocked::no_mshrs            nan                       # average number of cycles each access was blocked ((Cycle/Count))
system.cpu.dcache.avgBlocked::no_targets          nan                       # average number of cycles each access was blocked ((Cycle/Count))
system.cpu.dcache.writebacks::writebacks        13361                       # number of writebacks (Count)
system.cpu.dcache.writebacks::total             13361                       # number of writebacks (Count)
system.cpu.dcache.demandMshrMisses::cpu.data        16400                       # number of demand (read+write) MSHR misses (Count)
system.cpu.dcache.demandMshrMisses::total        16400                       # number of demand (read+write) MSHR misses (Count)
system.cpu.dcache.overallMshrMisses::cpu.data        16400                       # number of overall MSHR misses (Count)
system.cpu.dcache.overallMshrMisses::total        16400                       # number of overall MSHR misses (Count)
system.cpu.dcache.demandMshrMissLatency::cpu.data   1623491000                       # number of demand (read+write) MSHR miss ticks (Tick)
system.cpu.dcache.demandMshrMissLatency::total   1623491000                       # number of demand (read+write) MSHR miss ticks (Tick)
system.cpu.dcache.overallMshrMissLatency::cpu.data   1623491000                       # number of overall MSHR miss ticks (Tick)
system.cpu.dcache.overallMshrMissLatency::total   1623491000                       # number of overall MSHR miss ticks (Tick)
system.cpu.dcache.demandMshrMissRate::cpu.data     0.004393                       # mshr miss ratio for demand accesses (Ratio)
system.cpu.dcache.demandMshrMissRate::total     0.004393                       # mshr miss ratio for demand accesses (Ratio)
system.cpu.dcache.overallMshrMissRate::cpu.data     0.004393                       # mshr miss ratio for overall accesses (Ratio)
system.cpu.dcache.overallMshrMissRate::total     0.004393                       # mshr miss ratio for overall accesses (Ratio)
system.cpu.dcache.demandAvgMshrMissLatency::cpu.data 98993.353659                       # average overall mshr miss latency ((Tick/Count))
system.cpu.dcache.demandAvgMshrMissLatency::total 98993.353659                       # average overall mshr miss latency ((Tick/Count))
system.cpu.dcache.overallAvgMshrMissLatency::cpu.data 98993.353659                       # average overall mshr miss latency ((Tick/Count))
system.cpu.dcache.overallAvgMshrMissLatency::total 98993.353659                       # average overall mshr miss latency ((Tick/Count))
system.cpu.dcache.replacements                  15888                       # number of replacements (Count)
system.cpu.dcache.ReadReq.hits::cpu.data      2490560                       # number of ReadReq hits (Count)
system.cpu.dcache.ReadReq.hits::total         2490560                       # number of ReadReq hits (Count)
system.cpu.dcache.ReadReq.misses::cpu.data         2988                       # number of ReadReq misses (Count)
system.cpu.dcache.ReadReq.misses::total          2988                       # number of ReadReq misses (Count)
system.cpu.dcache.ReadReq.missLatency::cpu.data    294548000                       # number of ReadReq miss ticks (Tick)
system.cpu.dcache.ReadReq.missLatency::total    294548000                       # number of ReadReq miss ticks (Tick)
system.cpu.dcache.ReadReq.accesses::cpu.data      2493548                       # number of ReadReq accesses(hits+misses) (Count)
system.cpu.dcache.ReadReq.accesses::total      2493548                       # number of ReadReq accesses(hits+misses) (Count)
system.cpu.dcache.ReadReq.missRate::cpu.data     0.001198                       # miss rate for ReadReq accesses (Ratio)
system.cpu.dcache.ReadReq.missRate::total     0.001198                       # miss rate for ReadReq accesses (Ratio)
system.cpu.dcache.ReadReq.avgMissLatency::cpu.data 98576.974565                       # average ReadReq miss latency ((Tick/Count))
system.cpu.dcache.ReadReq.avgMissLatency::total 98576.974565                       # average ReadReq miss latency ((Tick/Count))
system.cpu.dcache.ReadReq.mshrMisses::cpu.data         2988                       # number of ReadReq MSHR misses (Count)
system.cpu.dcache.ReadReq.mshrMisses::total         2988                       # number of ReadReq MSHR misses (Count)
system.cpu.dcache.ReadReq.mshrMissLatency::cpu.data    288572000                       # number of ReadReq MSHR miss ticks (Tick)
system.cpu.dcache.ReadReq.mshrMissLatency::total    288572000                       # number of ReadReq MSHR miss ticks (Tick)
system.cpu.dcache.ReadReq.mshrMissRate::cpu.data     0.001198                       # mshr miss rate for ReadReq accesses (Ratio)
system.cpu.dcache.ReadReq.mshrMissRate::total     0.001198                       # mshr miss rate for ReadReq accesses (Ratio)
system.cpu.dcache.ReadReq.avgMshrMissLatency::cpu.data 96576.974565                       # average ReadReq mshr miss latency ((Tick/Count))
system.cpu.dcache.ReadReq.avgMshrMissLatency::total 96576.974565                       # average ReadReq mshr miss latency ((Tick/Count))
system.cpu.dcache.WriteReq.hits::cpu.data      1226274                       # number of WriteReq hits (Count)
system.cpu.dcache.WriteReq.hits::total        1226274                       # number of WriteReq hits (Count)
system.cpu.dcache.WriteReq.misses::cpu.data        13412                       # number of WriteReq misses (Count)
system.cpu.dcache.WriteReq.misses::total        13412                       # number of WriteReq misses (Count)
system.cpu.dcache.WriteReq.missLatency::cpu.data   1361743000                       # number of WriteReq miss ticks (Tick)
system.cpu.dcache.WriteReq.missLatency::total   1361743000                       # number of WriteReq miss ticks (Tick)
system.cpu.dcache.WriteReq.accesses::cpu.data      1239686                       # number of WriteReq accesses(hits+misses) (Count)
system.cpu.dcache.WriteReq.accesses::total      1239686                       # number of WriteReq accesses(hits+misses) (Count)
system.cpu.dcache.WriteReq.missRate::cpu.data     0.010819                       # miss rate for WriteReq accesses (Ratio)
system.cpu.dcache.WriteReq.missRate::total     0.010819                       # miss rate for WriteReq accesses (Ratio)
system.cpu.dcache.WriteReq.avgMissLatency::cpu.data 101531.688041                       # average WriteReq miss latency ((Tick/Count))
system.cpu.dcache.WriteReq.avgMissLatency::total 101531.688041                       # average WriteReq miss latency ((Tick/Count))
system.cpu.dcache.WriteReq.mshrMisses::cpu.data        13412                       # number of WriteReq MSHR misses (Count)
system.cpu.dcache.WriteReq.mshrMisses::total        13412                       # number of WriteReq MSHR misses (Count)
system.cpu.dcache.WriteReq.mshrMissLatency::cpu.data   1334919000                       # number of WriteReq MSHR miss ticks (Tick)
system.cpu.dcache.WriteReq.mshrMissLatency::total   1334919000                       # number of WriteReq MSHR miss ticks (Tick)
system.cpu.dcache.WriteReq.mshrMissRate::cpu.data     0.010819                       # mshr miss rate for WriteReq accesses (Ratio)
system.cpu.dcache.WriteReq.mshrMissRate::total     0.010819                       # mshr miss rate for WriteReq accesses (Ratio)
system.cpu.dcache.WriteReq.avgMshrMissLatency::cpu.data 99531.688041                       # average WriteReq mshr miss latency ((Tick/Count))
system.cpu.dcache.WriteReq.avgMshrMissLatency::total 99531.688041                       # average WriteReq mshr miss latency ((Tick/Count))
system.cpu.dcache.power_state.pwrStateResidencyTicks::UNDEFINED  30515406000                       # Cumulative time (in ticks) in various power states (Tick)
system.cpu.dcache.tags.tagsInUse           510.386265                       # Average ticks per tags in use ((Tick/Count))
system.cpu.dcache.tags.totalRefs              3733234                       # Total number of references to valid blocks. (Count)
system.cpu.dcache.tags.sampledRefs              16400                       # Sample count of references to valid blocks. (Count)
system.cpu.dcache.tags.avgRefs             227.636220                       # Average number of references to valid blocks. ((Count/Count))
system.cpu.dcache.tags.warmupTick              218000                       # The tick when the warmup percentage was hit. (Tick)
system.cpu.dcache.tags.occupancies::cpu.data   510.386265                       # Average occupied blocks per tick, per requestor ((Count/Tick))
system.cpu.dcache.tags.avgOccs::cpu.data     0.996848                       # Average percentage of cache occupancy ((Ratio/Tick))
system.cpu.dcache.tags.avgOccs::total        0.996848                       # Average percentage of cache occupancy ((Ratio/Tick))
system.cpu.dcache.tags.occupanciesTaskId::1024          512                       # Occupied blocks per task id (Count)
system.cpu.dcache.tags.ageTaskId_1024::0           22                       # Occupied blocks per task id, per block age (Count)
system.cpu.dcache.tags.ageTaskId_1024::1          138                       # Occupied blocks per task id, per block age (Count)
system.cpu.dcache.tags.ageTaskId_1024::2          323                       # Occupied blocks per task id, per block age (Count)
system.cpu.dcache.tags.ageTaskId_1024::3           19                       # Occupied blocks per task id, per block age (Count)
system.cpu.dcache.tags.ageTaskId_1024::4           10                       # Occupied blocks per task id, per block age (Count)
system.cpu.dcache.tags.ratioOccsTaskId::1024            1                       # Ratio of occupied blocks and all blocks, per task id (Ratio)
system.cpu.dcache.tags.tagAccesses           29882272                       # Number of tag accesses (Count)
system.cpu.dcache.tags.dataAccesses          29882272                       # Number of data accesses (Count)
system.cpu.dcache.tags.power_state.pwrStateResidencyTicks::UNDEFINED  30515406000                       # Cumulative time (in ticks) in various power states (Tick)
system.cpu.exec_context.thread_0.numMatAluAccesses            0                       # Number of matrix alu accesses (Count)
system.cpu.exec_context.thread_0.numCallsReturns       612998                       # Number of times a function call or return occured (Count)
system.cpu.exec_context.thread_0.numMatInsts            0                       # Number of matrix instructions (Count)
system.cpu.exec_context.thread_0.numIdleCycles     0.001000                       # Number of idle cycles (Cycle)
system.cpu.exec_context.thread_0.numBusyCycles 30515405.999000                       # Number of busy cycles (Cycle)
system.cpu.exec_context.thread_0.notIdleFraction     1.000000                       # Percentage of non-idle cycles (Ratio)
system.cpu.exec_context.thread_0.idleFraction     0.000000                       # Percentage of idle cycles (Ratio)
system.cpu.executeStats0.numInsts                   0                       # Number of executed instructions (Count)
system.cpu.executeStats0.numNop                     0                       # Number of nop insts executed (Count)
system.cpu.executeStats0.numBranches                0                       # Number of branches executed (Count)
system.cpu.executeStats0.numLoadInsts               0                       # Number of load instructions executed (Count)
system.cpu.executeStats0.numStoreInsts        3733484                       # Number of stores executed (Count)
system.cpu.executeStats0.instRate                   0                       # Inst execution rate ((Count/Cycle))
system.cpu.executeStats0.numFpAluAccesses      1535363                       # Number of float alu accesses (Count)
system.cpu.executeStats0.numFpRegReads        1743116                       # Number of times the floating registers were read (Count)
system.cpu.executeStats0.numFpRegWrites       1227848                       # Number of times the floating registers were written (Count)
system.cpu.executeStats0.numIntAluAccesses     14201668                       # Number of integer alu accesses (Count)
system.cpu.executeStats0.numIntRegReads      15097006                       # Number of times the integer registers were read (Count)
system.cpu.executeStats0.numIntRegWrites      9839143                       # Number of times the integer registers were written (Count)
system.cpu.executeStats0.numMemRefs           3733484                       # Number of memory refs (Count)
system.cpu.executeStats0.numMiscRegReads      7369032                       # Number of times the Misc registers were read (Count)
system.cpu.executeStats0.numMiscRegWrites           18                       # Number of times the Misc registers were written (Count)
system.cpu.executeStats0.numVecAluAccesses            0                       # Number of vector alu accesses (Count)
system.cpu.executeStats0.numDiscardedOps            0                       # Number of ops (including micro ops) which were discarded before commit (Count)
system.cpu.fetchStats0.numInsts               8038576                       # Number of instructions fetched (thread level) (Count)
system.cpu.fetchStats0.numOps                15430630                       # Number of ops (including micro ops) fetched (thread level) (Count)
system.cpu.fetchStats0.fetchRate             0.263427                       # Number of inst fetches per cycle ((Count/Cycle))
system.cpu.fetchStats0.numBranches            1767664                       # Number of branches fetched (Count)
system.cpu.fetchStats0.branchRate            0.057927                       # Number of branch fetches per cycle (Ratio)
system.cpu.fetchStats0.numFetchSuspends             0                       # Number of times Execute suspended instruction fetching (Count)
system.cpu.icache.demandHits::cpu.inst       10650046                       # number of demand (read+write) hits (Count)
system.cpu.icache.demandHits::total          10650046                       # number of demand (read+write) hits (Count)
system.cpu.icache.overallHits::cpu.inst      10650046                       # number of overall hits (Count)
system.cpu.icache.overallHits::total         10650046                       # number of overall hits (Count)
system.cpu.icache.demandMisses::cpu.inst         1214                       # number of demand (read+write) misses (Count)
system.cpu.icache.demandMisses::total            1214                       # number of demand (read+write) misses (Count)
system.cpu.icache.overallMisses::cpu.inst         1214                       # number of overall misses (Count)
system.cpu.icache.overallMisses::total           1214                       # number of overall misses (Count)
system.cpu.icache.demandMissLatency::cpu.inst    125481000                       # number of demand (read+write) miss ticks (Tick)
system.cpu.icache.demandMissLatency::total    125481000                       # number of demand (read+write) miss ticks (Tick)
system.cpu.icache.overallMissLatency::cpu.inst    125481000                       # number of overall miss ticks (Tick)
system.cpu.icache.overallMissLatency::total    125481000                       # number of overall miss ticks (Tick)
system.cpu.icache.demandAccesses::cpu.inst     10651260                       # number of demand (read+write) accesses (Count)
system.cpu.icache.demandAccesses::total      10651260                       # number of demand (read+write) accesses (Count)
system.cpu.icache.overallAccesses::cpu.inst     10651260                       # number of overall (read+write) accesses (Count)
system.cpu.icache.overallAccesses::total     10651260                       # number of overall (read+write) accesses (Count)
system.cpu.icache.demandMissRate::cpu.inst     0.000114                       # miss rate for demand accesses (Ratio)
system.cpu.icache.demandMissRate::total      0.000114                       # miss rate for demand accesses (Ratio)
system.cpu.icache.overallMissRate::cpu.inst     0.000114                       # miss rate for overall accesses (Ratio)
system.cpu.icache.overallMissRate::total     0.000114                       # miss rate for overall accesses (Ratio)
system.cpu.icache.demandAvgMissLatency::cpu.inst 103361.614498                       # average overall miss latency in ticks ((Tick/Count))
system.cpu.icache.demandAvgMissLatency::total 103361.614498                       # average overall miss latency in ticks ((Tick/Count))
system.cpu.icache.overallAvgMissLatency::cpu.inst 103361.614498                       # average overall miss latency ((Tick/Count))
system.cpu.icache.overallAvgMissLatency::total 103361.614498                       # average overall miss latency ((Tick/Count))
system.cpu.icache.blockedCycles::no_mshrs            0                       # number of cycles access was blocked (Cycle)
system.cpu.icache.blockedCycles::no_targets            0                       # number of cycles access was blocked (Cycle)
system.cpu.icache.blockedCauses::no_mshrs            0                       # number of times access was blocked (Count)
system.cpu.icache.blockedCauses::no_targets            0                       # number of times access was blocked (Count)
system.cpu.icache.avgBlocked::no_mshrs            nan                       # average number of cycles each access was blocked ((Cycle/Count))
system.cpu.icache.avgBlocked::no_targets          nan                       # average number of cycles each access was blocked ((Cycle/Count))
system.cpu.icache.demandMshrMisses::cpu.inst         1214                       # number of demand (read+write) MSHR misses (Count)
system.cpu.icache.demandMshrMisses::total         1214                       # number of demand (read+write) MSHR misses (Count)
system.cpu.icache.overallMshrMisses::cpu.inst         1214                       # number of overall MSHR misses (Count)
system.cpu.icache.overallMshrMisses::total         1214                       # number of overall MSHR misses (Count)
system.cpu.icache.demandMshrMissLatency::cpu.inst    123053000                       # number of demand (read+write) MSHR miss ticks (Tick)
system.cpu.icache.demandMshrMissLatency::total    123053000                       # number of demand (read+write) MSHR miss ticks (Tick)
system.cpu.icache.overallMshrMissLatency::cpu.inst    123053000                       # number of overall MSHR miss ticks (Tick)
system.cpu.icache.overallMshrMissLatency::total    123053000                       # number of overall MSHR miss ticks (Tick)
system.cpu.icache.demandMshrMissRate::cpu.inst     0.000114                       # mshr miss ratio for demand accesses (Ratio)
system.cpu.icache.demandMshrMissRate::total     0.000114                       # mshr miss ratio for demand accesses (Ratio)
system.cpu.icache.overallMshrMissRate::cpu.inst     0.000114                       # mshr miss ratio for overall accesses (Ratio)
system.cpu.icache.overallMshrMissRate::total     0.000114                       # mshr miss ratio for overall accesses (Ratio)
system.cpu.icache.demandAvgMshrMissLatency::cpu.inst 101361.614498                       # average overall mshr miss latency ((Tick/Count))
system.cpu.icache.demandAvgMshrMissLatency::total 101361.614498                       # average overall mshr miss latency ((Tick/Count))
system.cpu.icache.overallAvgMshrMissLatency::cpu.inst 101361.614498                       # average overall mshr miss latency ((Tick/Count))
system.cpu.icache.overallAvgMshrMissLatency::total 101361.614498                       # average overall mshr miss latency ((Tick/Count))
system.cpu.icache.replacements                    702                       # number of replacements (Count)
system.cpu.icache.ReadReq.hits::cpu.inst     10650046                       # number of ReadReq hits (Count)
system.cpu.icache.ReadReq.hits::total        10650046                       # number of ReadReq hits (Count)
system.cpu.icache.ReadReq.misses::cpu.inst         1214                       # number of ReadReq misses (Count)
system.cpu.icache.ReadReq.misses::total          1214                       # number of ReadReq misses (Count)
system.cpu.icache.ReadReq.missLatency::cpu.inst    125481000                       # number of ReadReq miss ticks (Tick)
system.cpu.icache.ReadReq.missLatency::total    125481000                       # number of ReadReq miss ticks (Tick)
system.cpu.icache.ReadReq.accesses::cpu.inst     10651260                       # number of ReadReq accesses(hits+misses) (Count)
system.cpu.icache.ReadReq.accesses::total     10651260                       # number of ReadReq accesses(hits+misses) (Count)
system.cpu.icache.ReadReq.missRate::cpu.inst     0.000114                       # miss rate for ReadReq accesses (Ratio)
system.cpu.icache.ReadReq.missRate::total     0.000114                       # miss rate for ReadReq accesses (Ratio)
system.cpu.icache.ReadReq.avgMissLatency::cpu.inst 103361.614498                       # average ReadReq miss latency ((Tick/Count))
system.cpu.icache.ReadReq.avgMissLatency::total 103361.614498                       # average ReadReq miss latency ((Tick/Count))
system.cpu.icache.ReadReq.mshrMisses::cpu.inst         1214                       # number of ReadReq MSHR misses (Count)
system.cpu.icache.ReadReq.mshrMisses::total         1214                       # number of ReadReq MSHR misses (Count)
system.cpu.icache.ReadReq.mshrMissLatency::cpu.inst    123053000                       # number of ReadReq MSHR miss ticks (Tick)
system.cpu.icache.ReadReq.mshrMissLatency::total    123053000                       # number of ReadReq MSHR miss ticks (Tick)
system.cpu.icache.ReadReq.mshrMissRate::cpu.inst     0.000114                       # mshr miss rate for ReadReq accesses (Ratio)
system.cpu.icache.ReadReq.mshrMissRate::total     0.000114                       # mshr miss rate for ReadReq accesses (Ratio)
system.cpu.icache.ReadReq.avgMshrMissLatency::cpu.inst 101361.614498                       # average ReadReq mshr miss latency ((Tick/Count))
system.cpu.icache.ReadReq.avgMshrMissLatency::total 101361.614498                       # average ReadReq mshr miss latency ((Tick/Count))
system.cpu.icache.power_state.pwrStateResidencyTicks::UNDEFINED  30515406000                       # Cumulative time (in ticks) in various power states (Tick)
system.cpu.icache.tags.tagsInUse           510.265074                       # Average ticks per tags in use ((Tick/Count))
system.cpu.icache.tags.totalRefs             10651260                       # Total number of references to valid blocks. (Count)
system.cpu.icache.tags.sampledRefs               1214                       # Sample count of references to valid blocks. (Count)
system.cpu.icache.tags.avgRefs            8773.690280                       # Average number of references to valid blocks. ((Count/Count))
system.cpu.icache.tags.warmupTick              107000                       # The tick when the warmup percentage was hit. (Tick)
system.cpu.icache.tags.occupancies::cpu.inst   510.265074                       # Average occupied blocks per tick, per requestor ((Count/Tick))
system.cpu.icache.tags.avgOccs::cpu.inst     0.996611                       # Average percentage of cache occupancy ((Ratio/Tick))
system.cpu.icache.tags.avgOccs::total        0.996611                       # Average percentage of cache occupancy ((Ratio/Tick))
system.cpu.icache.tags.occupanciesTaskId::1024          512                       # Occupied blocks per task id (Count)
system.cpu.icache.tags.ageTaskId_1024::0           49                       # Occupied blocks per task id, per block age (Count)
system.cpu.icache.tags.ageTaskId_1024::1          142                       # Occupied blocks per task id, per block age (Count)
system.cpu.icache.tags.ageTaskId_1024::2            2                       # Occupied blocks per task id, per block age (Count)
system.cpu.icache.tags.ageTaskId_1024::4          319                       # Occupied blocks per task id, per block age (Count)
system.cpu.icache.tags.ratioOccsTaskId::1024            1                       # Ratio of occupied blocks and all blocks, per task id (Ratio)
system.cpu.icache.tags.tagAccesses           85211294                       # Number of tag accesses (Count)
system.cpu.icache.tags.dataAccesses          85211294                       # Number of data accesses (Count)
system.cpu.icache.tags.power_state.pwrStateResidencyTicks::UNDEFINED  30515406000                       # Cumulative time (in ticks) in various power states (Tick)
system.cpu.interrupts.clk_domain.clock          16000                       # Clock period in ticks (Tick)
system.cpu.mmu.dtb.rdAccesses                 2493803                       # TLB accesses on read requests (Count)
system.cpu.mmu.dtb.wrAccesses                 1239704                       # TLB accesses on write requests (Count)
system.cpu.mmu.dtb.rdMisses                       628                       # TLB misses on read requests (Count)
system.cpu.mmu.dtb.wrMisses                       232                       # TLB misses on write requests (Count)
system.cpu.mmu.dtb.walker.power_state.pwrStateResidencyTicks::UNDEFINED  30515406000                       # Cumulative time (in ticks) in various power states (Tick)
system.cpu.mmu.itb.rdAccesses                       0                       # TLB accesses on read requests (Count)
system.cpu.mmu.itb.wrAccesses                10651321                       # TLB accesses on write requests (Count)
system.cpu.mmu.itb.rdMisses                         0                       # TLB misses on read requests (Count)
system.cpu.mmu.itb.wrMisses                       219                       # TLB misses on write requests (Count)
system.cpu.mmu.itb.walker.power_state.pwrStateResidencyTicks::UNDEFINED  30515406000                       # Cumulative time (in ticks) in various power states (Tick)
system.cpu.power_state.pwrStateResidencyTicks::ON  30515406000                       # Cumulative time (in ticks) in various power states (Tick)
system.cpu.thread_0.numInsts                        0                       # Number of Instructions committed (Count)
system.cpu.thread_0.numOps                          0                       # Number of Ops committed (Count)
system.cpu.thread_0.numMemRefs                      0                       # Number of Memory References (Count)
system.cpu.workload.numSyscalls                    53                       # Number of system calls (Count)
system.l2bus.transDist::ReadResp                 4202                       # Transaction distribution (Count)
system.l2bus.transDist::WritebackDirty          26159                       # Transaction distribution (Count)
system.l2bus.transDist::CleanEvict              17526                       # Transaction distribution (Count)
system.l2bus.transDist::ReadExReq               13412                       # Transaction distribution (Count)
system.l2bus.transDist::ReadExResp              13412                       # Transaction distribution (Count)
system.l2bus.transDist::ReadSharedReq            4202                       # Transaction distribution (Count)
system.l2bus.pktCount_system.cpu.icache.mem_side_port::system.l2cache.cpu_side_port         3130                       # Packet count per connected requestor and responder (Count)
system.l2bus.pktCount_system.cpu.dcache.mem_side_port::system.l2cache.cpu_side_port        48688                       # Packet count per connected requestor and responder (Count)
system.l2bus.pktCount::total                    51818                       # Packet count per connected requestor and responder (Count)
system.l2bus.pktSize_system.cpu.icache.mem_side_port::system.l2cache.cpu_side_port        77696                       # Cumulative packet size per connected requestor and responder (Byte)
system.l2bus.pktSize_system.cpu.dcache.mem_side_port::system.l2cache.cpu_side_port      1904704                       # Cumulative packet size per connected requestor and responder (Byte)
system.l2bus.pktSize::total                   1982400                       # Cumulative packet size per connected requestor and responder (Byte)
system.l2bus.snoops                             27095                       # Total snoops (Count)
system.l2bus.snoopTraffic                      819072                       # Total snoop traffic (Byte)
system.l2bus.snoopFanout::samples               44709                       # Request fanout histogram (Count)
system.l2bus.snoopFanout::mean               0.282784                       # Request fanout histogram (Count)
system.l2bus.snoopFanout::stdev              0.450357                       # Request fanout histogram (Count)
system.l2bus.snoopFanout::underflows                0      0.00%      0.00% # Request fanout histogram (Count)
system.l2bus.snoopFanout::0                     32066     71.72%     71.72% # Request fanout histogram (Count)
system.l2bus.snoopFanout::1                     12643     28.28%    100.00% # Request fanout histogram (Count)
system.l2bus.snoopFanout::2                         0      0.00%    100.00% # Request fanout histogram (Count)
system.l2bus.snoopFanout::overflows                 0      0.00%    100.00% # Request fanout histogram (Count)
system.l2bus.snoopFanout::min_value                 0                       # Request fanout histogram (Count)
system.l2bus.snoopFanout::max_value                 1                       # Request fanout histogram (Count)
system.l2bus.snoopFanout::total                 44709                       # Request fanout histogram (Count)
system.l2bus.power_state.pwrStateResidencyTicks::UNDEFINED  30515406000                       # Cumulative time (in ticks) in various power states (Tick)
system.l2bus.reqLayer0.occupancy             60926000                       # Layer occupancy (ticks) (Tick)
system.l2bus.reqLayer0.utilization                0.0                       # Layer utilization (Ratio)
system.l2bus.respLayer0.occupancy             3642000                       # Layer occupancy (ticks) (Tick)
system.l2bus.respLayer0.utilization               0.0                       # Layer utilization (Ratio)
system.l2bus.respLayer1.occupancy            49200000                       # Layer occupancy (ticks) (Tick)
system.l2bus.respLayer1.utilization               0.0                       # Layer utilization (Ratio)
system.l2bus.snoop_filter.totRequests           34204                       # Total number of requests made to the snoop filter. (Count)
system.l2bus.snoop_filter.hitSingleRequests        16590                       # Number of requests hitting in the snoop filter with a single holder of the requested data. (Count)
system.l2bus.snoop_filter.hitMultiRequests            0                       # Number of requests hitting in the snoop filter with multiple (>1) holders of the requested data. (Count)
system.l2bus.snoop_filter.totSnoops             12643                       # Total number of snoops made to the snoop filter. (Count)
system.l2bus.snoop_filter.hitSingleSnoops        12643                       # Number of snoops hitting in the snoop filter with a single holder of the requested data. (Count)
system.l2bus.snoop_filter.hitMultiSnoops            0                       # Number of snoops hitting in the snoop filter with multiple (>1) holders of the requested data. (Count)
system.l2cache.demandHits::cpu.inst                 2                       # number of demand (read+write) hits (Count)
system.l2cache.demandHits::cpu.data               232                       # number of demand (read+write) hits (Count)
system.l2cache.demandHits::total                  234                       # number of demand (read+write) hits (Count)
system.l2cache.overallHits::cpu.inst                2                       # number of overall hits (Count)
system.l2cache.overallHits::cpu.data              232                       # number of overall hits (Count)
system.l2cache.overallHits::total                 234                       # number of overall hits (Count)
system.l2cache.demandMisses::cpu.inst            1212                       # number of demand (read+write) misses (Count)
system.l2cache.demandMisses::cpu.data           16168                       # number of demand (read+write) misses (Count)
system.l2cache.demandMisses::total              17380                       # number of demand (read+write) misses (Count)
system.l2cache.overallMisses::cpu.inst           1212                       # number of overall misses (Count)
system.l2cache.overallMisses::cpu.data          16168                       # number of overall misses (Count)
system.l2cache.overallMisses::total             17380                       # number of overall misses (Count)
system.l2cache.demandMissLatency::cpu.inst    119360000                       # number of demand (read+write) miss ticks (Tick)
system.l2cache.demandMissLatency::cpu.data   1569418000                       # number of demand (read+write) miss ticks (Tick)
system.l2cache.demandMissLatency::total    1688778000                       # number of demand (read+write) miss ticks (Tick)
system.l2cache.overallMissLatency::cpu.inst    119360000                       # number of overall miss ticks (Tick)
system.l2cache.overallMissLatency::cpu.data   1569418000                       # number of overall miss ticks (Tick)
system.l2cache.overallMissLatency::total   1688778000                       # number of overall miss ticks (Tick)
system.l2cache.demandAccesses::cpu.inst          1214                       # number of demand (read+write) accesses (Count)
system.l2cache.demandAccesses::cpu.data         16400                       # number of demand (read+write) accesses (Count)
system.l2cache.demandAccesses::total            17614                       # number of demand (read+write) accesses (Count)
system.l2cache.overallAccesses::cpu.inst         1214                       # number of overall (read+write) accesses (Count)
system.l2cache.overallAccesses::cpu.data        16400                       # number of overall (read+write) accesses (Count)
system.l2cache.overallAccesses::total           17614                       # number of overall (read+write) accesses (Count)
system.l2cache.demandMissRate::cpu.inst      0.998353                       # miss rate for demand accesses (Ratio)
system.l2cache.demandMissRate::cpu.data      0.985854                       # miss rate for demand accesses (Ratio)
system.l2cache.demandMissRate::total         0.986715                       # miss rate for demand accesses (Ratio)
system.l2cache.overallMissRate::cpu.inst     0.998353                       # miss rate for overall accesses (Ratio)
system.l2cache.overallMissRate::cpu.data     0.985854                       # miss rate for overall accesses (Ratio)
system.l2cache.overallMissRate::total        0.986715                       # miss rate for overall accesses (Ratio)
system.l2cache.demandAvgMissLatency::cpu.inst 98481.848185                       # average overall miss latency in ticks ((Tick/Count))
system.l2cache.demandAvgMissLatency::cpu.data 97069.396338                       # average overall miss latency in ticks ((Tick/Count))
system.l2cache.demandAvgMissLatency::total 97167.894131                       # average overall miss latency in ticks ((Tick/Count))
system.l2cache.overallAvgMissLatency::cpu.inst 98481.848185                       # average overall miss latency ((Tick/Count))
system.l2cache.overallAvgMissLatency::cpu.data 97069.396338                       # average overall miss latency ((Tick/Count))
system.l2cache.overallAvgMissLatency::total 97167.894131                       # average overall miss latency ((Tick/Count))
system.l2cache.blockedCycles::no_mshrs              0                       # number of cycles access was blocked (Cycle)
system.l2cache.blockedCycles::no_targets            0                       # number of cycles access was blocked (Cycle)
system.l2cache.blockedCauses::no_mshrs              0                       # number of times access was blocked (Count)
system.l2cache.blockedCauses::no_targets            0                       # number of times access was blocked (Count)
system.l2cache.avgBlocked::no_mshrs               nan                       # average number of cycles each access was blocked ((Cycle/Count))
system.l2cache.avgBlocked::no_targets             nan                       # average number of cycles each access was blocked ((Cycle/Count))
system.l2cache.writebacks::writebacks           12798                       # number of writebacks (Count)
system.l2cache.writebacks::total                12798                       # number of writebacks (Count)
system.l2cache.demandMshrMisses::cpu.inst         1212                       # number of demand (read+write) MSHR misses (Count)
system.l2cache.demandMshrMisses::cpu.data        16168                       # number of demand (read+write) MSHR misses (Count)
system.l2cache.demandMshrMisses::total          17380                       # number of demand (read+write) MSHR misses (Count)
system.l2cache.overallMshrMisses::cpu.inst         1212                       # number of overall MSHR misses (Count)
system.l2cache.overallMshrMisses::cpu.data        16168                       # number of overall MSHR misses (Count)
system.l2cache.overallMshrMisses::total         17380                       # number of overall MSHR misses (Count)
system.l2cache.demandMshrMissLatency::cpu.inst     95120000                       # number of demand (read+write) MSHR miss ticks (Tick)
system.l2cache.demandMshrMissLatency::cpu.data   1246058000                       # number of demand (read+write) MSHR miss ticks (Tick)
system.l2cache.demandMshrMissLatency::total   1341178000                       # number of demand (read+write) MSHR miss ticks (Tick)
system.l2cache.overallMshrMissLatency::cpu.inst     95120000                       # number of overall MSHR miss ticks (Tick)
system.l2cache.overallMshrMissLatency::cpu.data   1246058000                       # number of overall MSHR miss ticks (Tick)
system.l2cache.overallMshrMissLatency::total   1341178000                       # number of overall MSHR miss ticks (Tick)
system.l2cache.demandMshrMissRate::cpu.inst     0.998353                       # mshr miss ratio for demand accesses (Ratio)
system.l2cache.demandMshrMissRate::cpu.data     0.985854                       # mshr miss ratio for demand accesses (Ratio)
system.l2cache.demandMshrMissRate::total     0.986715                       # mshr miss ratio for demand accesses (Ratio)
system.l2cache.overallMshrMissRate::cpu.inst     0.998353                       # mshr miss ratio for overall accesses (Ratio)
system.l2cache.overallMshrMissRate::cpu.data     0.985854                       # mshr miss ratio for overall accesses (Ratio)
system.l2cache.overallMshrMissRate::total     0.986715                       # mshr miss ratio for overall accesses (Ratio)
system.l2cache.demandAvgMshrMissLatency::cpu.inst 78481.848185                       # average overall mshr miss latency ((Tick/Count))
system.l2cache.demandAvgMshrMissLatency::cpu.data 77069.396338                       # average overall mshr miss latency ((Tick/Count))
system.l2cache.demandAvgMshrMissLatency::total 77167.894131                       # average overall mshr miss latency ((Tick/Count))
system.l2cache.overallAvgMshrMissLatency::cpu.inst 78481.848185                       # average overall mshr miss latency ((Tick/Count))
system.l2cache.overallAvgMshrMissLatency::cpu.data 77069.396338                       # average overall mshr miss latency ((Tick/Count))
system.l2cache.overallAvgMshrMissLatency::total 77167.894131                       # average overall mshr miss latency ((Tick/Count))
system.l2cache.replacements                     27095                       # number of replacements (Count)
system.l2cache.CleanEvict.mshrMisses::writebacks         1454                       # number of CleanEvict MSHR misses (Count)
system.l2cache.CleanEvict.mshrMisses::total         1454                       # number of CleanEvict MSHR misses (Count)
system.l2cache.CleanEvict.mshrMissRate::writebacks          inf                       # mshr miss rate for CleanEvict accesses (Ratio)
system.l2cache.CleanEvict.mshrMissRate::total          inf                       # mshr miss rate for CleanEvict accesses (Ratio)
system.l2cache.ReadExReq.hits::cpu.data            25                       # number of ReadExReq hits (Count)
system.l2cache.ReadExReq.hits::total               25                       # number of ReadExReq hits (Count)
system.l2cache.ReadExReq.misses::cpu.data        13387                       # number of ReadExReq misses (Count)
system.l2cache.ReadExReq.misses::total          13387                       # number of ReadExReq misses (Count)
system.l2cache.ReadExReq.missLatency::cpu.data   1294158000                       # number of ReadExReq miss ticks (Tick)
system.l2cache.ReadExReq.missLatency::total   1294158000                       # number of ReadExReq miss ticks (Tick)
system.l2cache.ReadExReq.accesses::cpu.data        13412                       # number of ReadExReq accesses(hits+misses) (Count)
system.l2cache.ReadExReq.accesses::total        13412                       # number of ReadExReq accesses(hits+misses) (Count)
system.l2cache.ReadExReq.missRate::cpu.data     0.998136                       # miss rate for ReadExReq accesses (Ratio)
system.l2cache.ReadExReq.missRate::total     0.998136                       # miss rate for ReadExReq accesses (Ratio)
system.l2cache.ReadExReq.avgMissLatency::cpu.data 96672.742213                       # average ReadExReq miss latency ((Tick/Count))
system.l2cache.ReadExReq.avgMissLatency::total 96672.742213                       # average ReadExReq miss latency ((Tick/Count))
system.l2cache.ReadExReq.mshrMisses::cpu.data        13387                       # number of ReadExReq MSHR misses (Count)
system.l2cache.ReadExReq.mshrMisses::total        13387                       # number of ReadExReq MSHR misses (Count)
system.l2cache.ReadExReq.mshrMissLatency::cpu.data   1026418000                       # number of ReadExReq MSHR miss ticks (Tick)
system.l2cache.ReadExReq.mshrMissLatency::total   1026418000                       # number of ReadExReq MSHR miss ticks (Tick)
system.l2cache.ReadExReq.mshrMissRate::cpu.data     0.998136                       # mshr miss rate for ReadExReq accesses (Ratio)
system.l2cache.ReadExReq.mshrMissRate::total     0.998136                       # mshr miss rate for ReadExReq accesses (Ratio)
system.l2cache.ReadExReq.avgMshrMissLatency::cpu.data 76672.742213                       # average ReadExReq mshr miss latency ((Tick/Count))
system.l2cache.ReadExReq.avgMshrMissLatency::total 76672.742213                       # average ReadExReq mshr miss latency ((Tick/Count))
system.l2cache.ReadSharedReq.hits::cpu.inst            2                       # number of ReadSharedReq hits (Count)
system.l2cache.ReadSharedReq.hits::cpu.data          207                       # number of ReadSharedReq hits (Count)
system.l2cache.ReadSharedReq.hits::total          209                       # number of ReadSharedReq hits (Count)
system.l2cache.ReadSharedReq.misses::cpu.inst         1212                       # number of ReadSharedReq misses (Count)
system.l2cache.ReadSharedReq.misses::cpu.data         2781                       # number of ReadSharedReq misses (Count)
system.l2cache.ReadSharedReq.misses::total         3993                       # number of ReadSharedReq misses (Count)
system.l2cache.ReadSharedReq.missLatency::cpu.inst    119360000                       # number of ReadSharedReq miss ticks (Tick)
system.l2cache.ReadSharedReq.missLatency::cpu.data    275260000                       # number of ReadSharedReq miss ticks (Tick)
system.l2cache.ReadSharedReq.missLatency::total    394620000                       # number of ReadSharedReq miss ticks (Tick)
system.l2cache.ReadSharedReq.accesses::cpu.inst         1214                       # number of ReadSharedReq accesses(hits+misses) (Count)
system.l2cache.ReadSharedReq.accesses::cpu.data         2988                       # number of ReadSharedReq accesses(hits+misses) (Count)
system.l2cache.ReadSharedReq.accesses::total         4202                       # number of ReadSharedReq accesses(hits+misses) (Count)
system.l2cache.ReadSharedReq.missRate::cpu.inst     0.998353                       # miss rate for ReadSharedReq accesses (Ratio)
system.l2cache.ReadSharedReq.missRate::cpu.data     0.930723                       # miss rate for ReadSharedReq accesses (Ratio)
system.l2cache.ReadSharedReq.missRate::total     0.950262                       # miss rate for ReadSharedReq accesses (Ratio)
system.l2cache.ReadSharedReq.avgMissLatency::cpu.inst 98481.848185                       # average ReadSharedReq miss latency ((Tick/Count))
system.l2cache.ReadSharedReq.avgMissLatency::cpu.data 98978.784610                       # average ReadSharedReq miss latency ((Tick/Count))
system.l2cache.ReadSharedReq.avgMissLatency::total 98827.948911                       # average ReadSharedReq miss latency ((Tick/Count))
system.l2cache.ReadSharedReq.mshrMisses::cpu.inst         1212                       # number of ReadSharedReq MSHR misses (Count)
system.l2cache.ReadSharedReq.mshrMisses::cpu.data         2781                       # number of ReadSharedReq MSHR misses (Count)
system.l2cache.ReadSharedReq.mshrMisses::total         3993                       # number of ReadSharedReq MSHR misses (Count)
system.l2cache.ReadSharedReq.mshrMissLatency::cpu.inst     95120000                       # number of ReadSharedReq MSHR miss ticks (Tick)
system.l2cache.ReadSharedReq.mshrMissLatency::cpu.data    219640000                       # number of ReadSharedReq MSHR miss ticks (Tick)
system.l2cache.ReadSharedReq.mshrMissLatency::total    314760000                       # number of ReadSharedReq MSHR miss ticks (Tick)
system.l2cache.ReadSharedReq.mshrMissRate::cpu.inst     0.998353                       # mshr miss rate for ReadSharedReq accesses (Ratio)
system.l2cache.ReadSharedReq.mshrMissRate::cpu.data     0.930723                       # mshr miss rate for ReadSharedReq accesses (Ratio)
system.l2cache.ReadSharedReq.mshrMissRate::total     0.950262                       # mshr miss rate for ReadSharedReq accesses (Ratio)
system.l2cache.ReadSharedReq.avgMshrMissLatency::cpu.inst 78481.848185                       # average ReadSharedReq mshr miss latency ((Tick/Count))
system.l2cache.ReadSharedReq.avgMshrMissLatency::cpu.data 78978.784610                       # average ReadSharedReq mshr miss latency ((Tick/Count))
system.l2cache.ReadSharedReq.avgMshrMissLatency::total 78827.948911                       # average ReadSharedReq mshr miss latency ((Tick/Count))
system.l2cache.WritebackDirty.hits::writebacks        13361                       # number of WritebackDirty hits (Count)
system.l2cache.WritebackDirty.hits::total        13361                       # number of WritebackDirty hits (Count)
system.l2cache.WritebackDirty.accesses::writebacks        13361                       # number of WritebackDirty accesses(hits+misses) (Count)
system.l2cache.WritebackDirty.accesses::total        13361                       # number of WritebackDirty accesses(hits+misses) (Count)
system.l2cache.power_state.pwrStateResidencyTicks::UNDEFINED  30515406000                       # Cumulative time (in ticks) in various power states (Tick)
system.l2cache.tags.tagsInUse             1021.087242                       # Average ticks per tags in use ((Tick/Count))
system.l2cache.tags.totalRefs                   32750                       # Total number of references to valid blocks. (Count)
system.l2cache.tags.sampledRefs                 28119                       # Sample count of references to valid blocks. (Count)
system.l2cache.tags.avgRefs                  1.164693                       # Average number of references to valid blocks. ((Count/Count))
system.l2cache.tags.warmupTick                  86000                       # The tick when the warmup percentage was hit. (Tick)
system.l2cache.tags.occupancies::writebacks   391.303395                       # Average occupied blocks per tick, per requestor ((Count/Tick))
system.l2cache.tags.occupancies::cpu.inst    13.288116                       # Average occupied blocks per tick, per requestor ((Count/Tick))
system.l2cache.tags.occupancies::cpu.data   616.495730                       # Average occupied blocks per tick, per requestor ((Count/Tick))
system.l2cache.tags.avgOccs::writebacks      0.382132                       # Average percentage of cache occupancy ((Ratio/Tick))
system.l2cache.tags.avgOccs::cpu.inst        0.012977                       # Average percentage of cache occupancy ((Ratio/Tick))
system.l2cache.tags.avgOccs::cpu.data        0.602047                       # Average percentage of cache occupancy ((Ratio/Tick))
system.l2cache.tags.avgOccs::total           0.997156                       # Average percentage of cache occupancy ((Ratio/Tick))
system.l2cache.tags.occupanciesTaskId::1024         1024                       # Occupied blocks per task id (Count)
system.l2cache.tags.ageTaskId_1024::0              89                       # Occupied blocks per task id, per block age (Count)
system.l2cache.tags.ageTaskId_1024::1             389                       # Occupied blocks per task id, per block age (Count)
system.l2cache.tags.ageTaskId_1024::2             390                       # Occupied blocks per task id, per block age (Count)
system.l2cache.tags.ageTaskId_1024::3             156                       # Occupied blocks per task id, per block age (Count)
system.l2cache.tags.ratioOccsTaskId::1024            1                       # Ratio of occupied blocks and all blocks, per task id (Ratio)
system.l2cache.tags.tagAccesses                301751                       # Number of tag accesses (Count)
system.l2cache.tags.dataAccesses               301751                       # Number of data accesses (Count)
system.l2cache.tags.power_state.pwrStateResidencyTicks::UNDEFINED  30515406000                       # Cumulative time (in ticks) in various power states (Tick)
system.mem_ctrl.avgPriority_writebacks::samples     12797.00                       # Average QoS priority value for accepted requests (Count)
system.mem_ctrl.avgPriority_cpu.inst::samples      1212.00                       # Average QoS priority value for accepted requests (Count)
system.mem_ctrl.avgPriority_cpu.data::samples     16144.00                       # Average QoS priority value for accepted requests (Count)
system.mem_ctrl.priorityMinLatency       0.000000018750                       # per QoS priority minimum request to response latency (Second)
system.mem_ctrl.priorityMaxLatency       0.004261872500                       # per QoS priority maximum request to response latency (Second)
system.mem_ctrl.numReadWriteTurnArounds           711                       # Number of turnarounds from READ to WRITE (Count)
system.mem_ctrl.numWriteReadTurnArounds           711                       # Number of turnarounds from WRITE to READ (Count)
system.mem_ctrl.numStayReadState                55277                       # Number of times bus staying in READ state (Count)
system.mem_ctrl.numStayWriteState               12062                       # Number of times bus staying in WRITE state (Count)
system.mem_ctrl.readReqs                        17380                       # Number of read requests accepted (Count)
system.mem_ctrl.writeReqs                       12798                       # Number of write requests accepted (Count)
system.mem_ctrl.readBursts                      17380                       # Number of controller read bursts, including those serviced by the write queue (Count)
system.mem_ctrl.writeBursts                     12798                       # Number of controller write bursts, including those merged in the write queue (Count)
system.mem_ctrl.servicedByWrQ                      24                       # Number of controller read bursts serviced by the write queue (Count)
system.mem_ctrl.mergedWrBursts                      1                       # Number of controller write bursts merged with an existing one (Count)
system.mem_ctrl.neitherReadNorWriteReqs             0                       # Number of requests that are neither read nor write (Count)
system.mem_ctrl.avgRdQLen                        1.00                       # Average read queue length when enqueuing ((Count/Tick))
system.mem_ctrl.avgWrQLen                       24.25                       # Average write queue length when enqueuing ((Count/Tick))
system.mem_ctrl.numRdRetry                          0                       # Number of times read queue was full causing retry (Count)
system.mem_ctrl.numWrRetry                          0                       # Number of times write queue was full causing retry (Count)
system.mem_ctrl.readPktSize::0                      0                       # Read request sizes (log2) (Count)
system.mem_ctrl.readPktSize::1                      0                       # Read request sizes (log2) (Count)
system.mem_ctrl.readPktSize::2                      0                       # Read request sizes (log2) (Count)
system.mem_ctrl.readPktSize::3                      0                       # Read request sizes (log2) (Count)
system.mem_ctrl.readPktSize::4                      0                       # Read request sizes (log2) (Count)
system.mem_ctrl.readPktSize::5                      0                       # Read request sizes (log2) (Count)
system.mem_ctrl.readPktSize::6                  17380                       # Read request sizes (log2) (Count)
system.mem_ctrl.writePktSize::0                     0                       # Write request sizes (log2) (Count)
system.mem_ctrl.writePktSize::1                     0                       # Write request sizes (log2) (Count)
system.mem_ctrl.writePktSize::2                     0                       # Write request sizes (log2) (Count)
system.mem_ctrl.writePktSize::3                     0                       # Write request sizes (log2) (Count)
system.mem_ctrl.writePktSize::4                     0                       # Write request sizes (log2) (Count)
system.mem_ctrl.writePktSize::5                     0                       # Write request sizes (log2) (Count)
system.mem_ctrl.writePktSize::6                 12798                       # Write request sizes (log2) (Count)
system.mem_ctrl.rdQLenPdf::0                    17355                       # What read queue length does an incoming req see (Count)
system.mem_ctrl.rdQLenPdf::1                        1                       # What read queue length does an incoming req see (Count)
system.mem_ctrl.rdQLenPdf::2                        0                       # What read queue length does an incoming req see (Count)
system.mem_ctrl.rdQLenPdf::3                        0                       # What read queue length does an incoming req see (Count)
system.mem_ctrl.rdQLenPdf::4                        0                       # What read queue length does an incoming req see (Count)
system.mem_ctrl.rdQLenPdf::5                        0                       # What read queue length does an incoming req see (Count)
system.mem_ctrl.rdQLenPdf::6                        0                       # What read queue length does an incoming req see (Count)
system.mem_ctrl.rdQLenPdf::7                        0                       # What read queue length does an incoming req see (Count)
system.mem_ctrl.rdQLenPdf::8                        0                       # What read queue length does an incoming req see (Count)
system.mem_ctrl.rdQLenPdf::9                        0                       # What read queue length does an incoming req see (Count)
system.mem_ctrl.rdQLenPdf::10                       0                       # What read queue length does an incoming req see (Count)
system.mem_ctrl.rdQLenPdf::11                       0                       # What read queue length does an incoming req see (Count)
system.mem_ctrl.rdQLenPdf::12                       0                       # What read queue length does an incoming req see (Count)
system.mem_ctrl.rdQLenPdf::13                       0                       # What read queue length does an incoming req see (Count)
system.mem_ctrl.rdQLenPdf::14                       0                       # What read queue length does an incoming req see (Count)
system.mem_ctrl.rdQLenPdf::15                       0                       # What read queue length does an incoming req see (Count)
system.mem_ctrl.rdQLenPdf::16                       0                       # What read queue length does an incoming req see (Count)
system.mem_ctrl.rdQLenPdf::17                       0                       # What read queue length does an incoming req see (Count)
system.mem_ctrl.rdQLenPdf::18                       0                       # What read queue length does an incoming req see (Count)
system.mem_ctrl.rdQLenPdf::19                       0                       # What read queue length does an incoming req see (Count)
system.mem_ctrl.rdQLenPdf::20                       0                       # What read queue length does an incoming req see (Count)
system.mem_ctrl.rdQLenPdf::21                       0                       # What read queue length does an incoming req see (Count)
system.mem_ctrl.rdQLenPdf::22                       0                       # What read queue length does an incoming req see (Count)
system.mem_ctrl.rdQLenPdf::23                       0                       # What read queue length does an incoming req see (Count)
system.mem_ctrl.rdQLenPdf::24                       0                       # What read queue length does an incoming req see (Count)
system.mem_ctrl.rdQLenPdf::25                       0                       # What read queue length does an incoming req see (Count)
system.mem_ctrl.rdQLenPdf::26                       0                       # What read queue length does an incoming req see (Count)
system.mem_ctrl.rdQLenPdf::27                       0                       # What read queue length does an incoming req see (Count)
system.mem_ctrl.rdQLenPdf::28                       0                       # What read queue length does an incoming req see (Count)
system.mem_ctrl.rdQLenPdf::29                       0                       # What read queue length does an incoming req see (Count)
system.mem_ctrl.rdQLenPdf::30                       0                       # What read queue length does an incoming req see (Count)
system.mem_ctrl.rdQLenPdf::31                       0                       # What read queue length does an incoming req see (Count)
system.mem_ctrl.wrQLenPdf::0                        1                       # What write queue length does an incoming req see (Count)
system.mem_ctrl.wrQLenPdf::1                        1                       # What write queue length does an incoming req see (Count)
system.mem_ctrl.wrQLenPdf::2                        1                       # What write queue length does an incoming req see (Count)
system.mem_ctrl.wrQLenPdf::3                        1                       # What write queue length does an incoming req see (Count)
system.mem_ctrl.wrQLenPdf::4                        1                       # What write queue length does an incoming req see (Count)
system.mem_ctrl.wrQLenPdf::5                        1                       # What write queue length does an incoming req see (Count)
system.mem_ctrl.wrQLenPdf::6                        1                       # What write queue length does an incoming req see (Count)
system.mem_ctrl.wrQLenPdf::7                        1                       # What write queue length does an incoming req see (Count)
system.mem_ctrl.wrQLenPdf::8                        1                       # What write queue length does an incoming req see (Count)
system.mem_ctrl.wrQLenPdf::9                        1                       # What write queue length does an incoming req see (Count)
system.mem_ctrl.wrQLenPdf::10                       1                       # What write queue length does an incoming req see (Count)
system.mem_ctrl.wrQLenPdf::11                       1                       # What write queue length does an incoming req see (Count)
system.mem_ctrl.wrQLenPdf::12                       1                       # What write queue length does an incoming req see (Count)
system.mem_ctrl.wrQLenPdf::13                       1                       # What write queue length does an incoming req see (Count)
system.mem_ctrl.wrQLenPdf::14                       1                       # What write queue length does an incoming req see (Count)
system.mem_ctrl.wrQLenPdf::15                     697                       # What write queue length does an incoming req see (Count)
system.mem_ctrl.wrQLenPdf::16                     697                       # What write queue length does an incoming req see (Count)
system.mem_ctrl.wrQLenPdf::17                     712                       # What write queue length does an incoming req see (Count)
[...]
system.mem_ctrl.dram.bytesWritten::total       819072                       # Number of bytes written to this memory (Byte)
system.mem_ctrl.dram.numReads::cpu.inst          1212                       # Number of read requests responded to by this memory (Count)
system.mem_ctrl.dram.numReads::cpu.data         16168                       # Number of read requests responded to by this memory (Count)
system.mem_ctrl.dram.numReads::total            17380                       # Number of read requests responded to by this memory (Count)
system.mem_ctrl.dram.numWrites::writebacks        12798                       # Number of write requests responded to by this memory (Count)
system.mem_ctrl.dram.numWrites::total           12798                       # Number of write requests responded to by this memory (Count)
system.mem_ctrl.dram.bwRead::cpu.inst         2541929                       # Total read bandwidth from this memory ((Byte/Second))
system.mem_ctrl.dram.bwRead::cpu.data        33909167                       # Total read bandwidth from this memory ((Byte/Second))
system.mem_ctrl.dram.bwRead::total           36451096                       # Total read bandwidth from this memory ((Byte/Second))
system.mem_ctrl.dram.bwInstRead::cpu.inst      2541929                       # Instruction read bandwidth from this memory ((Byte/Second))
system.mem_ctrl.dram.bwInstRead::total        2541929                       # Instruction read bandwidth from this memory ((Byte/Second))
system.mem_ctrl.dram.bwWrite::writebacks     26841262                       # Write bandwidth from this memory ((Byte/Second))
system.mem_ctrl.dram.bwWrite::total          26841262                       # Write bandwidth from this memory ((Byte/Second))
system.mem_ctrl.dram.bwTotal::writebacks     26841262                       # Total bandwidth to/from this memory ((Byte/Second))
system.mem_ctrl.dram.bwTotal::cpu.inst        2541929                       # Total bandwidth to/from this memory ((Byte/Second))
system.mem_ctrl.dram.bwTotal::cpu.data       33909167                       # Total bandwidth to/from this memory ((Byte/Second))
system.mem_ctrl.dram.bwTotal::total          63292358                       # Total bandwidth to/from this memory ((Byte/Second))
system.mem_ctrl.dram.readBursts                 17356                       # Number of DRAM read bursts (Count)
system.mem_ctrl.dram.writeBursts                12771                       # Number of DRAM write bursts (Count)
system.mem_ctrl.dram.perBankRdBursts::0          1048                       # Per bank write bursts (Count)
system.mem_ctrl.dram.perBankRdBursts::1          1128                       # Per bank write bursts (Count)
system.mem_ctrl.dram.perBankRdBursts::2          1105                       # Per bank write bursts (Count)
system.mem_ctrl.dram.perBankRdBursts::3           963                       # Per bank write bursts (Count)
system.mem_ctrl.dram.perBankRdBursts::4          1098                       # Per bank write bursts (Count)
system.mem_ctrl.dram.perBankRdBursts::5          1047                       # Per bank write bursts (Count)
system.mem_ctrl.dram.perBankRdBursts::6          1033                       # Per bank write bursts (Count)
system.mem_ctrl.dram.perBankRdBursts::7          1067                       # Per bank write bursts (Count)
system.mem_ctrl.dram.perBankRdBursts::8          1083                       # Per bank write bursts (Count)
system.mem_ctrl.dram.perBankRdBursts::9          1111                       # Per bank write bursts (Count)
system.mem_ctrl.dram.perBankRdBursts::10         1011                       # Per bank write bursts (Count)
system.mem_ctrl.dram.perBankRdBursts::11         1032                       # Per bank write bursts (Count)
system.mem_ctrl.dram.perBankRdBursts::12         1139                       # Per bank write bursts (Count)
system.mem_ctrl.dram.perBankRdBursts::13         1297                       # Per bank write bursts (Count)
system.mem_ctrl.dram.perBankRdBursts::14         1172                       # Per bank write bursts (Count)
system.mem_ctrl.dram.perBankRdBursts::15         1022                       # Per bank write bursts (Count)
system.mem_ctrl.dram.perBankWrBursts::0           697                       # Per bank write bursts (Count)
system.mem_ctrl.dram.perBankWrBursts::1           777                       # Per bank write bursts (Count)
system.mem_ctrl.dram.perBankWrBursts::2           815                       # Per bank write bursts (Count)
system.mem_ctrl.dram.perBankWrBursts::3           778                       # Per bank write bursts (Count)
system.mem_ctrl.dram.perBankWrBursts::4           848                       # Per bank write bursts (Count)
system.mem_ctrl.dram.perBankWrBursts::5           840                       # Per bank write bursts (Count)
system.mem_ctrl.dram.perBankWrBursts::6           780                       # Per bank write bursts (Count)
system.mem_ctrl.dram.perBankWrBursts::7           839                       # Per bank write bursts (Count)
system.mem_ctrl.dram.perBankWrBursts::8           836                       # Per bank write bursts (Count)
system.mem_ctrl.dram.perBankWrBursts::9           814                       # Per bank write bursts (Count)
system.mem_ctrl.dram.perBankWrBursts::10          843                       # Per bank write bursts (Count)
system.mem_ctrl.dram.perBankWrBursts::11          834                       # Per bank write bursts (Count)
system.mem_ctrl.dram.perBankWrBursts::12          844                       # Per bank write bursts (Count)
system.mem_ctrl.dram.perBankWrBursts::13          878                       # Per bank write bursts (Count)
system.mem_ctrl.dram.perBankWrBursts::14          687                       # Per bank write bursts (Count)
system.mem_ctrl.dram.perBankWrBursts::15          661                       # Per bank write bursts (Count)
system.mem_ctrl.dram.totQLat                124169000                       # Total ticks spent queuing (Tick)
system.mem_ctrl.dram.totBusLat               86780000                       # Total ticks spent in databus transfers (Tick)
system.mem_ctrl.dram.totMemAccLat           449594000                       # Total ticks spent from burst creation until serviced by the DRAM (Tick)
system.mem_ctrl.dram.avgQLat                  7154.24                       # Average queueing delay per DRAM burst ((Tick/Count))
system.mem_ctrl.dram.avgBusLat                5000.00                       # Average bus latency per DRAM burst ((Tick/Count))
system.mem_ctrl.dram.avgMemAccLat            25904.24                       # Average memory access latency per DRAM burst ((Tick/Count))
system.mem_ctrl.dram.readRowHits                12225                       # Number of row buffer hits during reads (Count)
system.mem_ctrl.dram.writeRowHits               11201                       # Number of row buffer hits during writes (Count)
system.mem_ctrl.dram.readRowHitRate             70.44                       # Row buffer hit rate for reads (Ratio)
system.mem_ctrl.dram.writeRowHitRate            87.71                       # Row buffer hit rate for writes (Ratio)
system.mem_ctrl.dram.bytesPerActivate::samples         6698                       # Bytes accessed per row activation (Byte)
system.mem_ctrl.dram.bytesPerActivate::mean   287.808898                       # Bytes accessed per row activation (Byte)
system.mem_ctrl.dram.bytesPerActivate::gmean   216.665346                       # Bytes accessed per row activation (Byte)
system.mem_ctrl.dram.bytesPerActivate::stdev   269.040353                       # Bytes accessed per row activation (Byte)
system.mem_ctrl.dram.bytesPerActivate::0-127          645      9.63%      9.63% # Bytes accessed per row activation (Byte)
system.mem_ctrl.dram.bytesPerActivate::128-255         3528     52.67%     62.30% # Bytes accessed per row activation (Byte)
system.mem_ctrl.dram.bytesPerActivate::256-383         1535     22.92%     85.22% # Bytes accessed per row activation (Byte)
system.mem_ctrl.dram.bytesPerActivate::384-511          115      1.72%     86.94% # Bytes accessed per row activation (Byte)
system.mem_ctrl.dram.bytesPerActivate::512-639           69      1.03%     87.97% # Bytes accessed per row activation (Byte)
system.mem_ctrl.dram.bytesPerActivate::640-767           59      0.88%     88.85% # Bytes accessed per row activation (Byte)
system.mem_ctrl.dram.bytesPerActivate::768-895           50      0.75%     89.59% # Bytes accessed per row activation (Byte)
system.mem_ctrl.dram.bytesPerActivate::896-1023           52      0.78%     90.37% # Bytes accessed per row activation (Byte)
system.mem_ctrl.dram.bytesPerActivate::1024-1151          645      9.63%    100.00% # Bytes accessed per row activation (Byte)
system.mem_ctrl.dram.bytesPerActivate::total         6698                       # Bytes accessed per row activation (Byte)
system.mem_ctrl.dram.dramBytesRead            1110784                       # Total bytes read (Byte)
system.mem_ctrl.dram.dramBytesWritten          817344                       # Total bytes written (Byte)
system.mem_ctrl.dram.avgRdBW                36.400761                       # Average DRAM read bandwidth in MiBytes/s ((Byte/Second))
system.mem_ctrl.dram.avgWrBW                26.784635                       # Average DRAM write bandwidth in MiBytes/s ((Byte/Second))
system.mem_ctrl.dram.peakBW                  12800.00                       # Theoretical peak bandwidth in MiByte/s ((Byte/Second))
system.mem_ctrl.dram.busUtil                     0.49                       # Data bus utilization in percentage (Ratio)
system.mem_ctrl.dram.busUtilRead                 0.28                       # Data bus utilization in percentage for reads (Ratio)
system.mem_ctrl.dram.busUtilWrite                0.21                       # Data bus utilization in percentage for writes (Ratio)
system.mem_ctrl.dram.pageHitRate                77.76                       # Row buffer hit rate, read and write combined (Ratio)
system.mem_ctrl.dram.power_state.pwrStateResidencyTicks::UNDEFINED  30515406000                       # Cumulative time (in ticks) in various power states (Tick)
system.mem_ctrl.dram.rank0.actEnergy         23947560                       # Energy for activate commands per rank (pJ) (Joule)
system.mem_ctrl.dram.rank0.preEnergy         12724635                       # Energy for precharge commands per rank (pJ) (Joule)
system.mem_ctrl.dram.rank0.readEnergy        60611460                       # Energy for read commands per rank (pJ) (Joule)
system.mem_ctrl.dram.rank0.writeEnergy       33272280                       # Energy for write commands per rank (pJ) (Joule)
system.mem_ctrl.dram.rank0.refreshEnergy 2408774160.000000                       # Energy for refresh commands per rank (pJ) (Joule)
system.mem_ctrl.dram.rank0.actBackEnergy   6787467090                       # Energy for active background per rank (pJ) (Joule)
system.mem_ctrl.dram.rank0.preBackEnergy   6002154240                       # Energy for precharge background per rank (pJ) (Joule)
system.mem_ctrl.dram.rank0.actPowerDownEnergy            0                       # Energy for active power-down per rank (pJ) (Joule)
system.mem_ctrl.dram.rank0.prePowerDownEnergy            0                       # Energy for precharge power-down per rank (pJ) (Joule)
system.mem_ctrl.dram.rank0.selfRefreshEnergy            0                       # Energy for self refresh per rank (pJ) (Joule)
system.mem_ctrl.dram.rank0.totalEnergy    15328951425                       # Total energy per rank (pJ) (Joule)
system.mem_ctrl.dram.rank0.averagePower    502.334835                       # Core power per rank (mW) (Watt)
system.mem_ctrl.dram.rank0.totalIdleTime            0                       # Total Idle time Per DRAM Rank (Tick)
system.mem_ctrl.dram.rank0.pwrStateTime::IDLE  15540926500                       # Time in different power states (Tick)
system.mem_ctrl.dram.rank0.pwrStateTime::REF   1018940000                       # Time in different power states (Tick)
system.mem_ctrl.dram.rank0.pwrStateTime::SREF            0                       # Time in different power states (Tick)
system.mem_ctrl.dram.rank0.pwrStateTime::PRE_PDN            0                       # Time in different power states (Tick)
system.mem_ctrl.dram.rank0.pwrStateTime::ACT  13955539500                       # Time in different power states (Tick)
system.mem_ctrl.dram.rank0.pwrStateTime::ACT_PDN            0                       # Time in different power states (Tick)
system.mem_ctrl.dram.rank1.actEnergy         23897580                       # Energy for activate commands per rank (pJ) (Joule)
system.mem_ctrl.dram.rank1.preEnergy         12694275                       # Energy for precharge commands per rank (pJ) (Joule)
system.mem_ctrl.dram.rank1.readEnergy        63310380                       # Energy for read commands per rank (pJ) (Joule)
system.mem_ctrl.dram.rank1.writeEnergy       33392340                       # Energy for write commands per rank (pJ) (Joule)
system.mem_ctrl.dram.rank1.refreshEnergy 2408774160.000000                       # Energy for refresh commands per rank (pJ) (Joule)
system.mem_ctrl.dram.rank1.actBackEnergy   7163717820                       # Energy for active background per rank (pJ) (Joule)
system.mem_ctrl.dram.rank1.preBackEnergy   5685311520                       # Energy for precharge background per rank (pJ) (Joule)
system.mem_ctrl.dram.rank1.actPowerDownEnergy            0                       # Energy for active power-down per rank (pJ) (Joule)
system.mem_ctrl.dram.rank1.prePowerDownEnergy            0                       # Energy for precharge power-down per rank (pJ) (Joule)
system.mem_ctrl.dram.rank1.selfRefreshEnergy            0                       # Energy for self refresh per rank (pJ) (Joule)
system.mem_ctrl.dram.rank1.totalEnergy    15391098075                       # Total energy per rank (pJ) (Joule)
system.mem_ctrl.dram.rank1.averagePower    504.371401                       # Core power per rank (mW) (Watt)
system.mem_ctrl.dram.rank1.totalIdleTime            0                       # Total Idle time Per DRAM Rank (Tick)
system.mem_ctrl.dram.rank1.pwrStateTime::IDLE  14713672250                       # Time in different power states (Tick)
system.mem_ctrl.dram.rank1.pwrStateTime::REF   1018940000                       # Time in different power states (Tick)
system.mem_ctrl.dram.rank1.pwrStateTime::SREF            0                       # Time in different power states (Tick)
system.mem_ctrl.dram.rank1.pwrStateTime::PRE_PDN            0                       # Time in different power states (Tick)
system.mem_ctrl.dram.rank1.pwrStateTime::ACT  14782793750                       # Time in different power states (Tick)
system.mem_ctrl.dram.rank1.pwrStateTime::ACT_PDN            0                       # Time in different power states (Tick)
system.mem_ctrl.power_state.pwrStateResidencyTicks::UNDEFINED  30515406000                       # Cumulative time (in ticks) in various power states (Tick)
system.membus.transDist::ReadResp                3993                       # Transaction distribution (Count)
system.membus.transDist::WritebackDirty         12798                       # Transaction distribution (Count)
system.membus.transDist::CleanEvict              3107                       # Transaction distribution (Count)
system.membus.transDist::ReadExReq              13387                       # Transaction distribution (Count)
system.membus.transDist::ReadExResp             13387                       # Transaction distribution (Count)
system.membus.transDist::ReadSharedReq           3993                       # Transaction distribution (Count)
system.membus.pktCount_system.l2cache.mem_side_port::system.mem_ctrl.port        50665                       # Packet count per connected requestor and responder (Count)
system.membus.pktCount_system.l2cache.mem_side_port::total        50665                       # Packet count per connected requestor and responder (Count)
system.membus.pktCount::total                   50665                       # Packet count per connected requestor and responder (Count)
system.membus.pktSize_system.l2cache.mem_side_port::system.mem_ctrl.port      1931392                       # Cumulative packet size per connected requestor and responder (Byte)
system.membus.pktSize_system.l2cache.mem_side_port::total      1931392                       # Cumulative packet size per connected requestor and responder (Byte)
system.membus.pktSize::total                  1931392                       # Cumulative packet size per connected requestor and responder (Byte)
system.membus.snoops                                0                       # Total snoops (Count)
system.membus.snoopTraffic                          0                       # Total snoop traffic (Byte)
system.membus.snoopFanout::samples              17380                       # Request fanout histogram (Count)
system.membus.snoopFanout::mean                     0                       # Request fanout histogram (Count)
system.membus.snoopFanout::stdev                    0                       # Request fanout histogram (Count)
system.membus.snoopFanout::underflows               0      0.00%      0.00% # Request fanout histogram (Count)
system.membus.snoopFanout::0                    17380    100.00%    100.00% # Request fanout histogram (Count)
system.membus.snoopFanout::1                        0      0.00%    100.00% # Request fanout histogram (Count)
system.membus.snoopFanout::overflows                0      0.00%    100.00% # Request fanout histogram (Count)
system.membus.snoopFanout::min_value                0                       # Request fanout histogram (Count)
system.membus.snoopFanout::max_value                0                       # Request fanout histogram (Count)
system.membus.snoopFanout::total                17380                       # Request fanout histogram (Count)
system.membus.power_state.pwrStateResidencyTicks::UNDEFINED  30515406000                       # Cumulative time (in ticks) in various power states (Tick)
system.membus.reqLayer2.occupancy            84477000                       # Layer occupancy (ticks) (Tick)
system.membus.reqLayer2.utilization               0.0                       # Layer utilization (Ratio)
system.membus.respLayer0.occupancy           92340750                       # Layer occupancy (ticks) (Tick)
system.membus.respLayer0.utilization              0.0                       # Layer utilization (Ratio)
system.membus.snoop_filter.totRequests          33285                       # Total number of requests made to the snoop filter. (Count)
system.membus.snoop_filter.hitSingleRequests        15905                       # Number of requests hitting in the snoop filter with a single holder of the requested data. (Count)
system.membus.snoop_filter.hitMultiRequests            0                       # Number of requests hitting in the snoop filter with multiple (>1) holders of the requested data. (Count)
system.membus.snoop_filter.totSnoops                0                       # Total number of snoops made to the snoop filter. (Count)
system.membus.snoop_filter.hitSingleSnoops            0                       # Number of snoops hitting in the snoop filter with a single holder of the requested data. (Count)
system.membus.snoop_filter.hitMultiSnoops            0                       # Number of snoops hitting in the snoop filter with multiple (>1) holders of the requested data. (Count)
system.workload.inst.arm                            0                       # number of arm instructions executed (Count)
system.workload.inst.quiesce                        0                       # number of quiesce instructions executed (Count)

---------- End Simulation Statistics   ----------
