
---------- Begin Simulation Statistics ----------
simSeconds                                   0.142327                       # Number of seconds simulated (Second)
simTicks                                 142326631000                       # Number of ticks simulated (Tick)
finalTick                                142326631000                       # Number of ticks from beginning of simulation (restored from checkpoints and never reset) (Tick)
simFreq                                  1000000000000                       # The number of ticks per simulated second ((Tick/Second))
hostSeconds                                     59.49                       # Real time elapsed on the host (Second)
hostTickRate                               2392579634                       # The number of ticks simulated per host second (ticks/s) ((Tick/Second))
hostMemory                                     701252                       # Number of bytes of host memory used (Byte)
simInsts                                     26273270                       # Number of instructions simulated (Count)
simOps                                       39564399                       # Number of ops (including micro ops) simulated (Count)
hostInstRate                                   441658                       # Simulator instruction rate (inst/s) ((Count/Second))
hostOpRate                                     665082                       # Simulator op (including micro ops) rate (op/s) ((Count/Second))
system.clk_domain.clock                          1000                       # Clock period in ticks (Tick)
system.clk_domain.voltage_domain.voltage            1                       # Voltage in Volts (Volt)
system.cpu.numCycles                        142326631                       # Number of cpu cycles simulated (Cycle)
system.cpu.cpi                               5.417139                       # CPI: cycles per instruction (core level) ((Cycle/Count))
system.cpu.ipc                               0.184599                       # IPC: instructions per cycle (core level) ((Count/Cycle))
system.cpu.numWorkItemsStarted                      0                       # Number of work items this cpu started (Count)
system.cpu.numWorkItemsCompleted                    0                       # Number of work items this cpu completed (Count)
system.cpu.commitStats0.numInsts             26273393                       # Number of instructions committed (thread level) (Count)
system.cpu.commitStats0.numOps               39564666                       # Number of ops (including micro ops) committed (thread level) (Count)
system.cpu.commitStats0.numInstsNotNOP              0                       # Number of instructions committed excluding NOPs or prefetches (Count)
system.cpu.commitStats0.numOpsNotNOP                0                       # Number of Ops (including micro ops) Simulated (Count)
system.cpu.commitStats0.cpi                  5.417139                       # CPI: cycles per instruction (thread level) ((Cycle/Count))
system.cpu.commitStats0.ipc                  0.184599                       # IPC: instructions per cycle (thread level) ((Count/Cycle))
system.cpu.commitStats0.numMemRefs                  0                       # Number of memory references committed (Count)
system.cpu.commitStats0.numFpInsts            9237510                       # Number of float instructions (Count)
system.cpu.commitStats0.numIntInsts          34006770                       # Number of integer instructions (Count)
system.cpu.commitStats0.numLoadInsts         11231585                       # Number of load instructions (Count)
system.cpu.commitStats0.numStoreInsts         2411975                       # Number of store instructions (Count)
system.cpu.commitStats0.numVecInsts                 0                       # Number of vector instructions (Count)
system.cpu.commitStats0.committedInstType::No_OpClass       234717      0.59%      0.59% # Class of committed instruction. (Count)
system.cpu.commitStats0.committedInstType::IntAlu     20752524     52.45%     53.05% # Class of committed instruction. (Count)
system.cpu.commitStats0.committedInstType::IntMult         9467      0.02%     53.07% # Class of committed instruction. (Count)
system.cpu.commitStats0.committedInstType::IntDiv         1799      0.00%     53.07% # Class of committed instruction. (Count)
system.cpu.commitStats0.committedInstType::FloatAdd      2621868      6.63%     59.70% # Class of committed instruction. (Count)
system.cpu.commitStats0.committedInstType::FloatCmp            0      0.00%     59.70% # Class of committed instruction. (Count)
system.cpu.commitStats0.committedInstType::FloatCvt           32      0.00%     59.70% # Class of committed instruction. (Count)
system.cpu.commitStats0.committedInstType::FloatMult            0      0.00%     59.70% # Class of committed instruction. (Count)
system.cpu.commitStats0.committedInstType::FloatMultAcc            0      0.00%     59.70% # Class of committed instruction. (Count)
system.cpu.commitStats0.committedInstType::FloatDiv            0      0.00%     59.70% # Class of committed instruction. (Count)
system.cpu.commitStats0.committedInstType::FloatMisc            0      0.00%     59.70% # Class of committed instruction. (Count)
system.cpu.commitStats0.committedInstType::FloatSqrt            0      0.00%     59.70% # Class of committed instruction. (Count)
system.cpu.commitStats0.committedInstType::SimdAdd          572      0.00%     59.70% # Class of committed instruction. (Count)
system.cpu.commitStats0.committedInstType::SimdAddAcc            0      0.00%     59.70% # Class of committed instruction. (Count)
system.cpu.commitStats0.committedInstType::SimdAlu       123828      0.31%     60.02% # Class of committed instruction. (Count)
system.cpu.commitStats0.committedInstType::SimdCmp            6      0.00%     60.02% # Class of committed instruction. (Count)
system.cpu.commitStats0.committedInstType::SimdCvt         1504      0.00%     60.02% # Class of committed instruction. (Count)
system.cpu.commitStats0.committedInstType::SimdMisc       160992      0.41%     60.43% # Class of committed instruction. (Count)
system.cpu.commitStats0.committedInstType::SimdMult            0      0.00%     60.43% # Class of committed instruction. (Count)
system.cpu.commitStats0.committedInstType::SimdMultAcc            0      0.00%     60.43% # Class of committed instruction. (Count)
system.cpu.commitStats0.committedInstType::SimdMatMultAcc            0      0.00%     60.43% # Class of committed instruction. (Count)
system.cpu.commitStats0.committedInstType::SimdShift          238      0.00%     60.43% # Class of committed instruction. (Count)
system.cpu.commitStats0.committedInstType::SimdShiftAcc            0      0.00%     60.43% # Class of committed instruction. (Count)
system.cpu.commitStats0.committedInstType::SimdDiv            0      0.00%     60.43% # Class of committed instruction. (Count)
system.cpu.commitStats0.committedInstType::SimdSqrt            0      0.00%     60.43% # Class of committed instruction. (Count)
system.cpu.commitStats0.committedInstType::SimdFloatAdd       820484      2.07%     62.50% # Class of committed instruction. (Count)
system.cpu.commitStats0.committedInstType::SimdFloatAlu            0      0.00%     62.50% # Class of committed instruction. (Count)
system.cpu.commitStats0.committedInstType::SimdFloatCmp            0      0.00%     62.50% # Class of committed instruction. (Count)
system.cpu.commitStats0.committedInstType::SimdFloatCvt        56603      0.14%     62.64% # Class of committed instruction. (Count)
system.cpu.commitStats0.committedInstType::SimdFloatDiv        55656      0.14%     62.78% # Class of committed instruction. (Count)
system.cpu.commitStats0.committedInstType::SimdFloatMisc            0      0.00%     62.78% # Class of committed instruction. (Count)
system.cpu.commitStats0.committedInstType::SimdFloatMult      1080816      2.73%     65.52% # Class of committed instruction. (Count)
system.cpu.commitStats0.committedInstType::SimdFloatMultAcc            0      0.00%     65.52% # Class of committed instruction. (Count)
system.cpu.commitStats0.committedInstType::SimdFloatMatMultAcc            0      0.00%     65.52% # Class of committed instruction. (Count)
system.cpu.commitStats0.committedInstType::SimdFloatSqrt            0      0.00%     65.52% # Class of committed instruction. (Count)
system.cpu.commitStats0.committedInstType::SimdReduceAdd            0      0.00%     65.52% # Class of committed instruction. (Count)
system.cpu.commitStats0.committedInstType::SimdReduceAlu            0      0.00%     65.52% # Class of committed instruction. (Count)
system.cpu.commitStats0.committedInstType::SimdReduceCmp            0      0.00%     65.52% # Class of committed instruction. (Count)
system.cpu.commitStats0.committedInstType::SimdFloatReduceAdd            0      0.00%     65.52% # Class of committed instruction. (Count)
system.cpu.commitStats0.committedInstType::SimdFloatReduceCmp            0      0.00%     65.52% # Class of committed instruction. (Count)
system.cpu.commitStats0.committedInstType::SimdAes            0      0.00%     65.52% # Class of committed instruction. (Count)
system.cpu.commitStats0.committedInstType::SimdAesMix            0      0.00%     65.52% # Class of committed instruction. (Count)
system.cpu.commitStats0.committedInstType::SimdSha1Hash            0      0.00%     65.52% # Class of committed instruction. (Count)
system.cpu.commitStats0.committedInstType::SimdSha1Hash2            0      0.00%     65.52% # Class of committed instruction. (Count)
system.cpu.commitStats0.committedInstType::SimdSha256Hash            0      0.00%     65.52% # Class of committed instruction. (Count)
system.cpu.commitStats0.committedInstType::SimdSha256Hash2            0      0.00%     65.52% # Class of committed instruction. (Count)
system.cpu.commitStats0.committedInstType::SimdShaSigma2            0      0.00%     65.52% # Class of committed instruction. (Count)
system.cpu.commitStats0.committedInstType::SimdShaSigma3            0      0.00%     65.52% # Class of committed instruction. (Count)
system.cpu.commitStats0.committedInstType::SimdPredAlu            0      0.00%     65.52% # Class of committed instruction. (Count)
system.cpu.commitStats0.committedInstType::Matrix            0      0.00%     65.52% # Class of committed instruction. (Count)
system.cpu.commitStats0.committedInstType::MatrixMov            0      0.00%     65.52% # Class of committed instruction. (Count)
system.cpu.commitStats0.committedInstType::MatrixOP            0      0.00%     65.52% # Class of committed instruction. (Count)
system.cpu.commitStats0.committedInstType::MemRead      8456092     21.37%     86.89% # Class of committed instruction. (Count)
system.cpu.commitStats0.committedInstType::MemWrite      1432462      3.62%     90.51% # Class of committed instruction. (Count)
system.cpu.commitStats0.committedInstType::FloatMemRead      2775493      7.02%     97.52% # Class of committed instruction. (Count)
system.cpu.commitStats0.committedInstType::FloatMemWrite       979513      2.48%    100.00% # Class of committed instruction. (Count)
system.cpu.commitStats0.committedInstType::IprAccess            0      0.00%    100.00% # Class of committed instruction. (Count)
system.cpu.commitStats0.committedInstType::InstPrefetch            0      0.00%    100.00% # Class of committed instruction. (Count)
system.cpu.commitStats0.committedInstType::SimdUnitStrideLoad            0      0.00%    100.00% # Class of committed instruction. (Count)
system.cpu.commitStats0.committedInstType::SimdUnitStrideStore            0      0.00%    100.00% # Class of committed instruction. (Count)
system.cpu.commitStats0.committedInstType::SimdUnitStrideMaskLoad            0      0.00%    100.00% # Class of committed instruction. (Count)
system.cpu.commitStats0.committedInstType::SimdUnitStrideMaskStore            0      0.00%    100.00% # Class of committed instruction. (Count)
system.cpu.commitStats0.committedInstType::SimdStridedLoad            0      0.00%    100.00% # Class of committed instruction. (Count)
system.cpu.commitStats0.committedInstType::SimdStridedStore            0      0.00%    100.00% # Class of committed instruction. (Count)
system.cpu.commitStats0.committedInstType::SimdIndexedLoad            0      0.00%    100.00% # Class of committed instruction. (Count)
system.cpu.commitStats0.committedInstType::SimdIndexedStore            0      0.00%    100.00% # Class of committed instruction. (Count)
system.cpu.commitStats0.committedInstType::SimdWholeRegisterLoad            0      0.00%    100.00% # Class of committed instruction. (Count)
system.cpu.commitStats0.committedInstType::SimdWholeRegisterStore            0      0.00%    100.00% # Class of committed instruction. (Count)
system.cpu.commitStats0.committedInstType::SimdUnitStrideFaultOnlyFirstLoad            0      0.00%    100.00% # Class of committed instruction. (Count)
system.cpu.commitStats0.committedInstType::SimdUnitStrideSegmentedLoad            0      0.00%    100.00% # Class of committed instruction. (Count)
system.cpu.commitStats0.committedInstType::SimdUnitStrideSegmentedStore            0      0.00%    100.00% # Class of committed instruction. (Count)
system.cpu.commitStats0.committedInstType::SimdExt            0      0.00%    100.00% # Class of committed instruction. (Count)
system.cpu.commitStats0.committedInstType::SimdFloatExt            0      0.00%    100.00% # Class of committed instruction. (Count)
system.cpu.commitStats0.committedInstType::SimdConfig            0      0.00%    100.00% # Class of committed instruction. (Count)
system.cpu.commitStats0.committedInstType::total     39564666                       # Class of committed instruction. (Count)
system.cpu.commitStats0.committedControl::IsControl      1876971                       # Class of control type instructions committed (Count)
system.cpu.commitStats0.committedControl::IsDirectControl      1637553                       # Class of control type instructions committed (Count)
system.cpu.commitStats0.committedControl::IsIndirectControl       239390                       # Class of control type instructions committed (Count)
system.cpu.commitStats0.committedControl::IsCondControl      1396579                       # Class of control type instructions committed (Count)
system.cpu.commitStats0.committedControl::IsUncondControl       480364                       # Class of control type instructions committed (Count)
system.cpu.commitStats0.committedControl::IsCall       168837                       # Class of control type instructions committed (Count)
system.cpu.commitStats0.committedControl::IsReturn       168833                       # Class of control type instructions committed (Count)
system.cpu.dcache.demandHits::cpu.data       13260273                       # number of demand (read+write) hits (Count)
system.cpu.dcache.demandHits::total          13260273                       # number of demand (read+write) hits (Count)
system.cpu.dcache.overallHits::cpu.data      13260273                       # number of overall hits (Count)
system.cpu.dcache.overallHits::total         13260273                       # number of overall hits (Count)
system.cpu.dcache.demandMisses::cpu.data       383122                       # number of demand (read+write) misses (Count)
system.cpu.dcache.demandMisses::total          383122                       # number of demand (read+write) misses (Count)
system.cpu.dcache.overallMisses::cpu.data       383122                       # number of overall misses (Count)
system.cpu.dcache.overallMisses::total         383122                       # number of overall misses (Count)
system.cpu.dcache.demandMissLatency::cpu.data  38471084000                       # number of demand (read+write) miss ticks (Tick)
system.cpu.dcache.demandMissLatency::total  38471084000                       # number of demand (read+write) miss ticks (Tick)
system.cpu.dcache.overallMissLatency::cpu.data  38471084000                       # number of overall miss ticks (Tick)
system.cpu.dcache.overallMissLatency::total  38471084000                       # number of overall miss ticks (Tick)
system.cpu.dcache.demandAccesses::cpu.data     13643395                       # number of demand (read+write) accesses (Count)
system.cpu.dcache.demandAccesses::total      13643395                       # number of demand (read+write) accesses (Count)
system.cpu.dcache.overallAccesses::cpu.data     13643395                       # number of overall (read+write) accesses (Count)
system.cpu.dcache.overallAccesses::total     13643395                       # number of overall (read+write) accesses (Count)
system.cpu.dcache.demandMissRate::cpu.data     0.028081                       # miss rate for demand accesses (Ratio)
system.cpu.dcache.demandMissRate::total      0.028081                       # miss rate for demand accesses (Ratio)
system.cpu.dcache.overallMissRate::cpu.data     0.028081                       # miss rate for overall accesses (Ratio)
system.cpu.dcache.overallMissRate::total     0.028081                       # miss rate for overall accesses (Ratio)
system.cpu.dcache.demandAvgMissLatency::cpu.data 100414.708631                       # average overall miss latency in ticks ((Tick/Count))
system.cpu.dcache.demandAvgMissLatency::total 100414.708631                       # average overall miss latency in ticks ((Tick/Count))
system.cpu.dcache.overallAvgMissLatency::cpu.data 100414.708631                       # average overall miss latency ((Tick/Count))
system.cpu.dcache.overallAvgMissLatency::total 100414.708631                       # average overall miss latency ((Tick/Count))
system.cpu.dcache.blockedCycles::no_mshrs            0                       # number of cycles access was blocked (Cycle)
system.cpu.dcache.blockedCycles::no_targets            0                       # number of cycles access was blocked (Cycle)
system.cpu.dcache.blockedCauses::no_mshrs            0                       # number of times access was blocked (Count)
system.cpu.dcache.blockedCauses::no_targets            0                       # number of times access was blocked (Count)
system.cpu.dcache.avgBlocked::no_mshrs            nan                       # average number of cycles each access was blocked ((Cycle/Count))
system.cpu.dcache.avgBlocked::no_targets          nan                       # average number of cycles each access was blocked ((Cycle/Count))
system.cpu.dcache.writebacks::writebacks        40701                       # number of writebacks (Count)
system.cpu.dcache.writebacks::total             40701                       # number of writebacks (Count)
system.cpu.dcache.demandMshrMisses::cpu.data       383122                       # number of demand (read+write) MSHR misses (Count)
system.cpu.dcache.demandMshrMisses::total       383122                       # number of demand (read+write) MSHR misses (Count)
system.cpu.dcache.overallMshrMisses::cpu.data       383122                       # number of overall MSHR misses (Count)
system.cpu.dcache.overallMshrMisses::total       383122                       # number of overall MSHR misses (Count)
system.cpu.dcache.demandMshrMissLatency::cpu.data  37704840000                       # number of demand (read+write) MSHR miss ticks (Tick)
system.cpu.dcache.demandMshrMissLatency::total  37704840000                       # number of demand (read+write) MSHR miss ticks (Tick)
system.cpu.dcache.overallMshrMissLatency::cpu.data  37704840000                       # number of overall MSHR miss ticks (Tick)
system.cpu.dcache.overallMshrMissLatency::total  37704840000                       # number of overall MSHR miss ticks (Tick)
system.cpu.dcache.demandMshrMissRate::cpu.data     0.028081                       # mshr miss ratio for demand accesses (Ratio)
system.cpu.dcache.demandMshrMissRate::total     0.028081                       # mshr miss ratio for demand accesses (Ratio)
system.cpu.dcache.overallMshrMissRate::cpu.data     0.028081                       # mshr miss ratio for overall accesses (Ratio)
system.cpu.dcache.overallMshrMissRate::total     0.028081                       # mshr miss ratio for overall accesses (Ratio)
system.cpu.dcache.demandAvgMshrMissLatency::cpu.data 98414.708631                       # average overall mshr miss latency ((Tick/Count))
system.cpu.dcache.demandAvgMshrMissLatency::total 98414.708631                       # average overall mshr miss latency ((Tick/Count))
system.cpu.dcache.overallAvgMshrMissLatency::cpu.data 98414.708631                       # average overall mshr miss latency ((Tick/Count))
system.cpu.dcache.overallAvgMshrMissLatency::total 98414.708631                       # average overall mshr miss latency ((Tick/Count))
system.cpu.dcache.replacements                 382098                       # number of replacements (Count)
system.cpu.dcache.ReadReq.hits::cpu.data     10856795                       # number of ReadReq hits (Count)
system.cpu.dcache.ReadReq.hits::total        10856795                       # number of ReadReq hits (Count)
system.cpu.dcache.ReadReq.misses::cpu.data       374649                       # number of ReadReq misses (Count)
system.cpu.dcache.ReadReq.misses::total        374649                       # number of ReadReq misses (Count)
system.cpu.dcache.ReadReq.missLatency::cpu.data  37590673000                       # number of ReadReq miss ticks (Tick)
system.cpu.dcache.ReadReq.missLatency::total  37590673000                       # number of ReadReq miss ticks (Tick)
system.cpu.dcache.ReadReq.accesses::cpu.data     11231444                       # number of ReadReq accesses(hits+misses) (Count)
system.cpu.dcache.ReadReq.accesses::total     11231444                       # number of ReadReq accesses(hits+misses) (Count)
system.cpu.dcache.ReadReq.missRate::cpu.data     0.033357                       # miss rate for ReadReq accesses (Ratio)
system.cpu.dcache.ReadReq.missRate::total     0.033357                       # miss rate for ReadReq accesses (Ratio)
system.cpu.dcache.ReadReq.avgMissLatency::cpu.data 100335.708890                       # average ReadReq miss latency ((Tick/Count))
system.cpu.dcache.ReadReq.avgMissLatency::total 100335.708890                       # average ReadReq miss latency ((Tick/Count))
system.cpu.dcache.ReadReq.mshrMisses::cpu.data       374649                       # number of ReadReq MSHR misses (Count)
system.cpu.dcache.ReadReq.mshrMisses::total       374649                       # number of ReadReq MSHR misses (Count)
system.cpu.dcache.ReadReq.mshrMissLatency::cpu.data  36841375000                       # number of ReadReq MSHR miss ticks (Tick)
system.cpu.dcache.ReadReq.mshrMissLatency::total  36841375000                       # number of ReadReq MSHR miss ticks (Tick)
system.cpu.dcache.ReadReq.mshrMissRate::cpu.data     0.033357                       # mshr miss rate for ReadReq accesses (Ratio)
system.cpu.dcache.ReadReq.mshrMissRate::total     0.033357                       # mshr miss rate for ReadReq accesses (Ratio)
system.cpu.dcache.ReadReq.avgMshrMissLatency::cpu.data 98335.708890                       # average ReadReq mshr miss latency ((Tick/Count))
system.cpu.dcache.ReadReq.avgMshrMissLatency::total 98335.708890                       # average ReadReq mshr miss latency ((Tick/Count))
system.cpu.dcache.WriteReq.hits::cpu.data      2403478                       # number of WriteReq hits (Count)
system.cpu.dcache.WriteReq.hits::total        2403478                       # number of WriteReq hits (Count)
system.cpu.dcache.WriteReq.misses::cpu.data         8473                       # number of WriteReq misses (Count)
system.cpu.dcache.WriteReq.misses::total         8473                       # number of WriteReq misses (Count)
system.cpu.dcache.WriteReq.missLatency::cpu.data    880411000                       # number of WriteReq miss ticks (Tick)
system.cpu.dcache.WriteReq.missLatency::total    880411000                       # number of WriteReq miss ticks (Tick)
system.cpu.dcache.WriteReq.accesses::cpu.data      2411951                       # number of WriteReq accesses(hits+misses) (Count)
system.cpu.dcache.WriteReq.accesses::total      2411951                       # number of WriteReq accesses(hits+misses) (Count)
system.cpu.dcache.WriteReq.missRate::cpu.data     0.003513                       # miss rate for WriteReq accesses (Ratio)
system.cpu.dcache.WriteReq.missRate::total     0.003513                       # miss rate for WriteReq accesses (Ratio)
system.cpu.dcache.WriteReq.avgMissLatency::cpu.data 103907.824855                       # average WriteReq miss latency ((Tick/Count))
system.cpu.dcache.WriteReq.avgMissLatency::total 103907.824855                       # average WriteReq miss latency ((Tick/Count))
system.cpu.dcache.WriteReq.mshrMisses::cpu.data         8473                       # number of WriteReq MSHR misses (Count)
system.cpu.dcache.WriteReq.mshrMisses::total         8473                       # number of WriteReq MSHR misses (Count)
system.cpu.dcache.WriteReq.mshrMissLatency::cpu.data    863465000                       # number of WriteReq MSHR miss ticks (Tick)
system.cpu.dcache.WriteReq.mshrMissLatency::total    863465000                       # number of WriteReq MSHR miss ticks (Tick)
system.cpu.dcache.WriteReq.mshrMissRate::cpu.data     0.003513                       # mshr miss rate for WriteReq accesses (Ratio)
system.cpu.dcache.WriteReq.mshrMissRate::total     0.003513                       # mshr miss rate for WriteReq accesses (Ratio)
system.cpu.dcache.WriteReq.avgMshrMissLatency::cpu.data 101907.824855                       # average WriteReq mshr miss latency ((Tick/Count))
system.cpu.dcache.WriteReq.avgMshrMissLatency::total 101907.824855                       # average WriteReq mshr miss latency ((Tick/Count))
system.cpu.dcache.power_state.pwrStateResidencyTicks::UNDEFINED 142326631000                       # Cumulative time (in ticks) in various power states (Tick)
system.cpu.dcache.tags.tagsInUse          1022.449430                       # Average ticks per tags in use ((Tick/Count))
system.cpu.dcache.tags.totalRefs             13643395                       # Total number of references to valid blocks. (Count)
system.cpu.dcache.tags.sampledRefs             383122                       # Sample count of references to valid blocks. (Count)
system.cpu.dcache.tags.avgRefs              35.611098                       # Average number of references to valid blocks. ((Count/Count))
system.cpu.dcache.tags.warmupTick              218000                       # The tick when the warmup percentage was hit. (Tick)
system.cpu.dcache.tags.occupancies::cpu.data  1022.449430                       # Average occupied blocks per tick, per requestor ((Count/Tick))
system.cpu.dcache.tags.avgOccs::cpu.data     0.998486                       # Average percentage of cache occupancy ((Ratio/Tick))
system.cpu.dcache.tags.avgOccs::total        0.998486                       # Average percentage of cache occupancy ((Ratio/Tick))
system.cpu.dcache.tags.occupanciesTaskId::1024         1024                       # Occupied blocks per task id (Count)
system.cpu.dcache.tags.ageTaskId_1024::0           23                       # Occupied blocks per task id, per block age (Count)
system.cpu.dcache.tags.ageTaskId_1024::1          132                       # Occupied blocks per task id, per block age (Count)
system.cpu.dcache.tags.ageTaskId_1024::2          273                       # Occupied blocks per task id, per block age (Count)
system.cpu.dcache.tags.ageTaskId_1024::3          596                       # Occupied blocks per task id, per block age (Count)
system.cpu.dcache.tags.ratioOccsTaskId::1024            1                       # Ratio of occupied blocks and all blocks, per task id (Ratio)
system.cpu.dcache.tags.tagAccesses           27669912                       # Number of tag accesses (Count)
system.cpu.dcache.tags.dataAccesses          27669912                       # Number of data accesses (Count)
system.cpu.dcache.tags.power_state.pwrStateResidencyTicks::UNDEFINED 142326631000                       # Cumulative time (in ticks) in various power states (Tick)
system.cpu.exec_context.thread_0.numMatAluAccesses            0                       # Number of matrix alu accesses (Count)
system.cpu.exec_context.thread_0.numCallsReturns       337670                       # Number of times a function call or return occured (Count)
system.cpu.exec_context.thread_0.numMatInsts            0                       # Number of matrix instructions (Count)
system.cpu.exec_context.thread_0.numIdleCycles     0.001000                       # Number of idle cycles (Cycle)
system.cpu.exec_context.thread_0.numBusyCycles 142326630.999000                       # Number of busy cycles (Cycle)
system.cpu.exec_context.thread_0.notIdleFraction     1.000000                       # Percentage of non-idle cycles (Ratio)
system.cpu.exec_context.thread_0.idleFraction     0.000000                       # Percentage of idle cycles (Ratio)
system.cpu.executeStats0.numInsts                   0                       # Number of executed instructions (Count)
system.cpu.executeStats0.numNop                     0                       # Number of nop insts executed (Count)
system.cpu.executeStats0.numBranches                0                       # Number of branches executed (Count)
system.cpu.executeStats0.numLoadInsts               0                       # Number of load instructions executed (Count)
system.cpu.executeStats0.numStoreInsts       13643560                       # Number of stores executed (Count)
system.cpu.executeStats0.instRate                   0                       # Inst execution rate ((Count/Cycle))
system.cpu.executeStats0.numFpAluAccesses      9237510                       # Number of float alu accesses (Count)
system.cpu.executeStats0.numFpRegReads        8499223                       # Number of times the floating registers were read (Count)
system.cpu.executeStats0.numFpRegWrites       8255054                       # Number of times the floating registers were written (Count)
system.cpu.executeStats0.numIntAluAccesses     34006770                       # Number of integer alu accesses (Count)
system.cpu.executeStats0.numIntRegReads      40494822                       # Number of times the integer registers were read (Count)
system.cpu.executeStats0.numIntRegWrites     25399066                       # Number of times the integer registers were written (Count)
system.cpu.executeStats0.numMemRefs          13643560                       # Number of memory refs (Count)
system.cpu.executeStats0.numMiscRegReads     17463328                       # Number of times the Misc registers were read (Count)
system.cpu.executeStats0.numMiscRegWrites           18                       # Number of times the Misc registers were written (Count)
system.cpu.executeStats0.numVecAluAccesses            0                       # Number of vector alu accesses (Count)
system.cpu.executeStats0.numDiscardedOps            0                       # Number of ops (including micro ops) which were discarded before commit (Count)
system.cpu.fetchStats0.numInsts              26273393                       # Number of instructions fetched (thread level) (Count)
system.cpu.fetchStats0.numOps                39564666                       # Number of ops (including micro ops) fetched (thread level) (Count)
system.cpu.fetchStats0.fetchRate             0.184599                       # Number of inst fetches per cycle ((Count/Cycle))
system.cpu.fetchStats0.numBranches            1876971                       # Number of branches fetched (Count)
system.cpu.fetchStats0.branchRate            0.013188                       # Number of branch fetches per cycle (Ratio)
system.cpu.fetchStats0.numFetchSuspends             0                       # Number of times Execute suspended instruction fetching (Count)
system.cpu.icache.demandHits::cpu.inst       38587219                       # number of demand (read+write) hits (Count)
system.cpu.icache.demandHits::total          38587219                       # number of demand (read+write) hits (Count)
system.cpu.icache.overallHits::cpu.inst      38587219                       # number of overall hits (Count)
system.cpu.icache.overallHits::total         38587219                       # number of overall hits (Count)
system.cpu.icache.demandMisses::cpu.inst         1553                       # number of demand (read+write) misses (Count)
system.cpu.icache.demandMisses::total            1553                       # number of demand (read+write) misses (Count)
system.cpu.icache.overallMisses::cpu.inst         1553                       # number of overall misses (Count)
system.cpu.icache.overallMisses::total           1553                       # number of overall misses (Count)
system.cpu.icache.demandMissLatency::cpu.inst    160846000                       # number of demand (read+write) miss ticks (Tick)
system.cpu.icache.demandMissLatency::total    160846000                       # number of demand (read+write) miss ticks (Tick)
system.cpu.icache.overallMissLatency::cpu.inst    160846000                       # number of overall miss ticks (Tick)
system.cpu.icache.overallMissLatency::total    160846000                       # number of overall miss ticks (Tick)
system.cpu.icache.demandAccesses::cpu.inst     38588772                       # number of demand (read+write) accesses (Count)
system.cpu.icache.demandAccesses::total      38588772                       # number of demand (read+write) accesses (Count)
system.cpu.icache.overallAccesses::cpu.inst     38588772                       # number of overall (read+write) accesses (Count)
system.cpu.icache.overallAccesses::total     38588772                       # number of overall (read+write) accesses (Count)
system.cpu.icache.demandMissRate::cpu.inst     0.000040                       # miss rate for demand accesses (Ratio)
system.cpu.icache.demandMissRate::total      0.000040                       # miss rate for demand accesses (Ratio)
system.cpu.icache.overallMissRate::cpu.inst     0.000040                       # miss rate for overall accesses (Ratio)
system.cpu.icache.overallMissRate::total     0.000040                       # miss rate for overall accesses (Ratio)
system.cpu.icache.demandAvgMissLatency::cpu.inst 103571.152608                       # average overall miss latency in ticks ((Tick/Count))
system.cpu.icache.demandAvgMissLatency::total 103571.152608                       # average overall miss latency in ticks ((Tick/Count))
system.cpu.icache.overallAvgMissLatency::cpu.inst 103571.152608                       # average overall miss latency ((Tick/Count))
system.cpu.icache.overallAvgMissLatency::total 103571.152608                       # average overall miss latency ((Tick/Count))
system.cpu.icache.blockedCycles::no_mshrs            0                       # number of cycles access was blocked (Cycle)
system.cpu.icache.blockedCycles::no_targets            0                       # number of cycles access was blocked (Cycle)
system.cpu.icache.blockedCauses::no_mshrs            0                       # number of times access was blocked (Count)
system.cpu.icache.blockedCauses::no_targets            0                       # number of times access was blocked (Count)
system.cpu.icache.avgBlocked::no_mshrs            nan                       # average number of cycles each access was blocked ((Cycle/Count))
system.cpu.icache.avgBlocked::no_targets          nan                       # average number of cycles each access was blocked ((Cycle/Count))
system.cpu.icache.demandMshrMisses::cpu.inst         1553                       # number of demand (read+write) MSHR misses (Count)
system.cpu.icache.demandMshrMisses::total         1553                       # number of demand (read+write) MSHR misses (Count)
system.cpu.icache.overallMshrMisses::cpu.inst         1553                       # number of overall MSHR misses (Count)
system.cpu.icache.overallMshrMisses::total         1553                       # number of overall MSHR misses (Count)
system.cpu.icache.demandMshrMissLatency::cpu.inst    157740000                       # number of demand (read+write) MSHR miss ticks (Tick)
system.cpu.icache.demandMshrMissLatency::total    157740000                       # number of demand (read+write) MSHR miss ticks (Tick)
system.cpu.icache.overallMshrMissLatency::cpu.inst    157740000                       # number of overall MSHR miss ticks (Tick)
system.cpu.icache.overallMshrMissLatency::total    157740000                       # number of overall MSHR miss ticks (Tick)
system.cpu.icache.demandMshrMissRate::cpu.inst     0.000040                       # mshr miss ratio for demand accesses (Ratio)
system.cpu.icache.demandMshrMissRate::total     0.000040                       # mshr miss ratio for demand accesses (Ratio)
system.cpu.icache.overallMshrMissRate::cpu.inst     0.000040                       # mshr miss ratio for overall accesses (Ratio)
system.cpu.icache.overallMshrMissRate::total     0.000040                       # mshr miss ratio for overall accesses (Ratio)
system.cpu.icache.demandAvgMshrMissLatency::cpu.inst 101571.152608                       # average overall mshr miss latency ((Tick/Count))
system.cpu.icache.demandAvgMshrMissLatency::total 101571.152608                       # average overall mshr miss latency ((Tick/Count))
system.cpu.icache.overallAvgMshrMissLatency::cpu.inst 101571.152608                       # average overall mshr miss latency ((Tick/Count))
system.cpu.icache.overallAvgMshrMissLatency::total 101571.152608                       # average overall mshr miss latency ((Tick/Count))
system.cpu.icache.replacements                    629                       # number of replacements (Count)
system.cpu.icache.ReadReq.hits::cpu.inst     38587219                       # number of ReadReq hits (Count)
system.cpu.icache.ReadReq.hits::total        38587219                       # number of ReadReq hits (Count)
system.cpu.icache.ReadReq.misses::cpu.inst         1553                       # number of ReadReq misses (Count)
system.cpu.icache.ReadReq.misses::total          1553                       # number of ReadReq misses (Count)
system.cpu.icache.ReadReq.missLatency::cpu.inst    160846000                       # number of ReadReq miss ticks (Tick)
system.cpu.icache.ReadReq.missLatency::total    160846000                       # number of ReadReq miss ticks (Tick)
system.cpu.icache.ReadReq.accesses::cpu.inst     38588772                       # number of ReadReq accesses(hits+misses) (Count)
system.cpu.icache.ReadReq.accesses::total     38588772                       # number of ReadReq accesses(hits+misses) (Count)
system.cpu.icache.ReadReq.missRate::cpu.inst     0.000040                       # miss rate for ReadReq accesses (Ratio)
system.cpu.icache.ReadReq.missRate::total     0.000040                       # miss rate for ReadReq accesses (Ratio)
system.cpu.icache.ReadReq.avgMissLatency::cpu.inst 103571.152608                       # average ReadReq miss latency ((Tick/Count))
system.cpu.icache.ReadReq.avgMissLatency::total 103571.152608                       # average ReadReq miss latency ((Tick/Count))
system.cpu.icache.ReadReq.mshrMisses::cpu.inst         1553                       # number of ReadReq MSHR misses (Count)
system.cpu.icache.ReadReq.mshrMisses::total         1553                       # number of ReadReq MSHR misses (Count)
system.cpu.icache.ReadReq.mshrMissLatency::cpu.inst    157740000                       # number of ReadReq MSHR miss ticks (Tick)
system.cpu.icache.ReadReq.mshrMissLatency::total    157740000                       # number of ReadReq MSHR miss ticks (Tick)
system.cpu.icache.ReadReq.mshrMissRate::cpu.inst     0.000040                       # mshr miss rate for ReadReq accesses (Ratio)
system.cpu.icache.ReadReq.mshrMissRate::total     0.000040                       # mshr miss rate for ReadReq accesses (Ratio)
system.cpu.icache.ReadReq.avgMshrMissLatency::cpu.inst 101571.152608                       # average ReadReq mshr miss latency ((Tick/Count))
system.cpu.icache.ReadReq.avgMshrMissLatency::total 101571.152608                       # average ReadReq mshr miss latency ((Tick/Count))
system.cpu.icache.power_state.pwrStateResidencyTicks::UNDEFINED 142326631000                       # Cumulative time (in ticks) in various power states (Tick)
system.cpu.icache.tags.tagsInUse           847.280390                       # Average ticks per tags in use ((Tick/Count))
system.cpu.icache.tags.totalRefs             38588772                       # Total number of references to valid blocks. (Count)
system.cpu.icache.tags.sampledRefs               1553                       # Sample count of references to valid blocks. (Count)
system.cpu.icache.tags.avgRefs           24847.889247                       # Average number of references to valid blocks. ((Count/Count))
system.cpu.icache.tags.warmupTick              107000                       # The tick when the warmup percentage was hit. (Tick)
system.cpu.icache.tags.occupancies::cpu.inst   847.280390                       # Average occupied blocks per tick, per requestor ((Count/Tick))
system.cpu.icache.tags.avgOccs::cpu.inst     0.827422                       # Average percentage of cache occupancy ((Ratio/Tick))
system.cpu.icache.tags.avgOccs::total        0.827422                       # Average percentage of cache occupancy ((Ratio/Tick))
system.cpu.icache.tags.occupanciesTaskId::1024          924                       # Occupied blocks per task id (Count)
system.cpu.icache.tags.ageTaskId_1024::0           49                       # Occupied blocks per task id, per block age (Count)
system.cpu.icache.tags.ageTaskId_1024::1           69                       # Occupied blocks per task id, per block age (Count)
system.cpu.icache.tags.ageTaskId_1024::2            6                       # Occupied blocks per task id, per block age (Count)
system.cpu.icache.tags.ageTaskId_1024::3          119                       # Occupied blocks per task id, per block age (Count)
system.cpu.icache.tags.ageTaskId_1024::4          681                       # Occupied blocks per task id, per block age (Count)
system.cpu.icache.tags.ratioOccsTaskId::1024     0.902344                       # Ratio of occupied blocks and all blocks, per task id (Ratio)
system.cpu.icache.tags.tagAccesses           77179097                       # Number of tag accesses (Count)
system.cpu.icache.tags.dataAccesses          77179097                       # Number of data accesses (Count)
system.cpu.icache.tags.power_state.pwrStateResidencyTicks::UNDEFINED 142326631000                       # Cumulative time (in ticks) in various power states (Tick)
system.cpu.interrupts.clk_domain.clock          16000                       # Clock period in ticks (Tick)
system.cpu.mmu.dtb.rdAccesses                11231607                       # TLB accesses on read requests (Count)
system.cpu.mmu.dtb.wrAccesses                 2411980                       # TLB accesses on write requests (Count)
system.cpu.mmu.dtb.rdMisses                     40266                       # TLB misses on read requests (Count)
system.cpu.mmu.dtb.wrMisses                       176                       # TLB misses on write requests (Count)
system.cpu.mmu.dtb.walker.power_state.pwrStateResidencyTicks::UNDEFINED 142326631000                       # Cumulative time (in ticks) in various power states (Tick)
system.cpu.mmu.itb.rdAccesses                       0                       # TLB accesses on read requests (Count)
system.cpu.mmu.itb.wrAccesses                38588843                       # TLB accesses on write requests (Count)
system.cpu.mmu.itb.rdMisses                         0                       # TLB misses on read requests (Count)
system.cpu.mmu.itb.wrMisses                       244                       # TLB misses on write requests (Count)
system.cpu.mmu.itb.walker.power_state.pwrStateResidencyTicks::UNDEFINED 142326631000                       # Cumulative time (in ticks) in various power states (Tick)
system.cpu.power_state.pwrStateResidencyTicks::ON 142326631000                       # Cumulative time (in ticks) in various power states (Tick)
system.cpu.thread_0.numInsts                        0                       # Number of Instructions committed (Count)
system.cpu.thread_0.numOps                          0                       # Number of Ops committed (Count)
system.cpu.thread_0.numMemRefs                      0                       # Number of Memory References (Count)
system.cpu.workload.numSyscalls                    75                       # Number of system calls (Count)
system.l2bus.transDist::ReadResp               376202                       # Transaction distribution (Count)
system.l2bus.transDist::WritebackDirty          81106                       # Transaction distribution (Count)
system.l2bus.transDist::CleanEvict             716370                       # Transaction distribution (Count)
system.l2bus.transDist::ReadExReq                8473                       # Transaction distribution (Count)
system.l2bus.transDist::ReadExResp               8473                       # Transaction distribution (Count)
system.l2bus.transDist::ReadSharedReq          376202                       # Transaction distribution (Count)
system.l2bus.pktCount_system.cpu.icache.mem_side_port::system.l2cache.cpu_side_port         3735                       # Packet count per connected requestor and responder (Count)
system.l2bus.pktCount_system.cpu.dcache.mem_side_port::system.l2cache.cpu_side_port      1148342                       # Packet count per connected requestor and responder (Count)
system.l2bus.pktCount::total                  1152077                       # Packet count per connected requestor and responder (Count)
system.l2bus.pktSize_system.cpu.icache.mem_side_port::system.l2cache.cpu_side_port        99392                       # Cumulative packet size per connected requestor and responder (Byte)
system.l2bus.pktSize_system.cpu.dcache.mem_side_port::system.l2cache.cpu_side_port     27124672                       # Cumulative packet size per connected requestor and responder (Byte)
system.l2bus.pktSize::total                  27224064                       # Cumulative packet size per connected requestor and responder (Byte)
system.l2bus.snoops                            414749                       # Total snoops (Count)
system.l2bus.snoopTraffic                     2585920                       # Total snoop traffic (Byte)
system.l2bus.snoopFanout::samples              799424                       # Request fanout histogram (Count)
system.l2bus.snoopFanout::mean               0.241328                       # Request fanout histogram (Count)
system.l2bus.snoopFanout::stdev              0.427889                       # Request fanout histogram (Count)
system.l2bus.snoopFanout::underflows                0      0.00%      0.00% # Request fanout histogram (Count)
system.l2bus.snoopFanout::0                    606501     75.87%     75.87% # Request fanout histogram (Count)
system.l2bus.snoopFanout::1                    192923     24.13%    100.00% # Request fanout histogram (Count)
system.l2bus.snoopFanout::2                         0      0.00%    100.00% # Request fanout histogram (Count)
system.l2bus.snoopFanout::overflows                 0      0.00%    100.00% # Request fanout histogram (Count)
system.l2bus.snoopFanout::min_value                 0                       # Request fanout histogram (Count)
system.l2bus.snoopFanout::max_value                 1                       # Request fanout histogram (Count)
system.l2bus.snoopFanout::total                799424                       # Request fanout histogram (Count)
system.l2bus.power_state.pwrStateResidencyTicks::UNDEFINED 142326631000                       # Cumulative time (in ticks) in various power states (Tick)
system.l2bus.reqLayer0.occupancy            848804000                       # Layer occupancy (ticks) (Tick)
system.l2bus.reqLayer0.utilization                0.0                       # Layer utilization (Ratio)
system.l2bus.respLayer0.occupancy             4659000                       # Layer occupancy (ticks) (Tick)
system.l2bus.respLayer0.utilization               0.0                       # Layer utilization (Ratio)
system.l2bus.respLayer1.occupancy          1149366000                       # Layer occupancy (ticks) (Tick)
system.l2bus.respLayer1.utilization               0.0                       # Layer utilization (Ratio)
system.l2bus.snoop_filter.totRequests          767402                       # Total number of requests made to the snoop filter. (Count)
system.l2bus.snoop_filter.hitSingleRequests       382727                       # Number of requests hitting in the snoop filter with a single holder of the requested data. (Count)
system.l2bus.snoop_filter.hitMultiRequests            0                       # Number of requests hitting in the snoop filter with multiple (>1) holders of the requested data. (Count)
system.l2bus.snoop_filter.totSnoops            192923                       # Total number of snoops made to the snoop filter. (Count)
system.l2bus.snoop_filter.hitSingleSnoops       192923                       # Number of snoops hitting in the snoop filter with a single holder of the requested data. (Count)
system.l2bus.snoop_filter.hitMultiSnoops            0                       # Number of snoops hitting in the snoop filter with multiple (>1) holders of the requested data. (Count)
system.l2cache.demandHits::cpu.inst                 6                       # number of demand (read+write) hits (Count)
system.l2cache.demandHits::cpu.data               516                       # number of demand (read+write) hits (Count)
system.l2cache.demandHits::total                  522                       # number of demand (read+write) hits (Count)
system.l2cache.overallHits::cpu.inst                6                       # number of overall hits (Count)
system.l2cache.overallHits::cpu.data              516                       # number of overall hits (Count)
system.l2cache.overallHits::total                 522                       # number of overall hits (Count)
system.l2cache.demandMisses::cpu.inst            1547                       # number of demand (read+write) misses (Count)
system.l2cache.demandMisses::cpu.data          382606                       # number of demand (read+write) misses (Count)
system.l2cache.demandMisses::total             384153                       # number of demand (read+write) misses (Count)
system.l2cache.overallMisses::cpu.inst           1547                       # number of overall misses (Count)
system.l2cache.overallMisses::cpu.data         382606                       # number of overall misses (Count)
system.l2cache.overallMisses::total            384153                       # number of overall misses (Count)
system.l2cache.demandMissLatency::cpu.inst    152945000                       # number of demand (read+write) miss ticks (Tick)
system.l2cache.demandMissLatency::cpu.data  36544636000                       # number of demand (read+write) miss ticks (Tick)
system.l2cache.demandMissLatency::total   36697581000                       # number of demand (read+write) miss ticks (Tick)
system.l2cache.overallMissLatency::cpu.inst    152945000                       # number of overall miss ticks (Tick)
system.l2cache.overallMissLatency::cpu.data  36544636000                       # number of overall miss ticks (Tick)
system.l2cache.overallMissLatency::total  36697581000                       # number of overall miss ticks (Tick)
system.l2cache.demandAccesses::cpu.inst          1553                       # number of demand (read+write) accesses (Count)
system.l2cache.demandAccesses::cpu.data        383122                       # number of demand (read+write) accesses (Count)
system.l2cache.demandAccesses::total           384675                       # number of demand (read+write) accesses (Count)
system.l2cache.overallAccesses::cpu.inst         1553                       # number of overall (read+write) accesses (Count)
system.l2cache.overallAccesses::cpu.data       383122                       # number of overall (read+write) accesses (Count)
system.l2cache.overallAccesses::total          384675                       # number of overall (read+write) accesses (Count)
system.l2cache.demandMissRate::cpu.inst      0.996137                       # miss rate for demand accesses (Ratio)
system.l2cache.demandMissRate::cpu.data      0.998653                       # miss rate for demand accesses (Ratio)
system.l2cache.demandMissRate::total         0.998643                       # miss rate for demand accesses (Ratio)
system.l2cache.overallMissRate::cpu.inst     0.996137                       # miss rate for overall accesses (Ratio)
system.l2cache.overallMissRate::cpu.data     0.998653                       # miss rate for overall accesses (Ratio)
system.l2cache.overallMissRate::total        0.998643                       # miss rate for overall accesses (Ratio)
system.l2cache.demandAvgMissLatency::cpu.inst 98865.546218                       # average overall miss latency in ticks ((Tick/Count))
system.l2cache.demandAvgMissLatency::cpu.data 95515.062492                       # average overall miss latency in ticks ((Tick/Count))
system.l2cache.demandAvgMissLatency::total 95528.555029                       # average overall miss latency in ticks ((Tick/Count))
system.l2cache.overallAvgMissLatency::cpu.inst 98865.546218                       # average overall miss latency ((Tick/Count))
system.l2cache.overallAvgMissLatency::cpu.data 95515.062492                       # average overall miss latency ((Tick/Count))
system.l2cache.overallAvgMissLatency::total 95528.555029                       # average overall miss latency ((Tick/Count))
system.l2cache.blockedCycles::no_mshrs              0                       # number of cycles access was blocked (Cycle)
system.l2cache.blockedCycles::no_targets            0                       # number of cycles access was blocked (Cycle)
system.l2cache.blockedCauses::no_mshrs              0                       # number of times access was blocked (Count)
system.l2cache.blockedCauses::no_targets            0                       # number of times access was blocked (Count)
system.l2cache.avgBlocked::no_mshrs               nan                       # average number of cycles each access was blocked ((Cycle/Count))
system.l2cache.avgBlocked::no_targets             nan                       # average number of cycles each access was blocked ((Cycle/Count))
system.l2cache.writebacks::writebacks           40405                       # number of writebacks (Count)
system.l2cache.writebacks::total                40405                       # number of writebacks (Count)
system.l2cache.demandMshrMisses::cpu.inst         1547                       # number of demand (read+write) MSHR misses (Count)
system.l2cache.demandMshrMisses::cpu.data       382606                       # number of demand (read+write) MSHR misses (Count)
system.l2cache.demandMshrMisses::total         384153                       # number of demand (read+write) MSHR misses (Count)
system.l2cache.overallMshrMisses::cpu.inst         1547                       # number of overall MSHR misses (Count)
system.l2cache.overallMshrMisses::cpu.data       382606                       # number of overall MSHR misses (Count)
system.l2cache.overallMshrMisses::total        384153                       # number of overall MSHR misses (Count)
system.l2cache.demandMshrMissLatency::cpu.inst    122005000                       # number of demand (read+write) MSHR miss ticks (Tick)
system.l2cache.demandMshrMissLatency::cpu.data  28892516000                       # number of demand (read+write) MSHR miss ticks (Tick)
system.l2cache.demandMshrMissLatency::total  29014521000                       # number of demand (read+write) MSHR miss ticks (Tick)
system.l2cache.overallMshrMissLatency::cpu.inst    122005000                       # number of overall MSHR miss ticks (Tick)
system.l2cache.overallMshrMissLatency::cpu.data  28892516000                       # number of overall MSHR miss ticks (Tick)
system.l2cache.overallMshrMissLatency::total  29014521000                       # number of overall MSHR miss ticks (Tick)
system.l2cache.demandMshrMissRate::cpu.inst     0.996137                       # mshr miss ratio for demand accesses (Ratio)
system.l2cache.demandMshrMissRate::cpu.data     0.998653                       # mshr miss ratio for demand accesses (Ratio)
system.l2cache.demandMshrMissRate::total     0.998643                       # mshr miss ratio for demand accesses (Ratio)
system.l2cache.overallMshrMissRate::cpu.inst     0.996137                       # mshr miss ratio for overall accesses (Ratio)
system.l2cache.overallMshrMissRate::cpu.data     0.998653                       # mshr miss ratio for overall accesses (Ratio)
system.l2cache.overallMshrMissRate::total     0.998643                       # mshr miss ratio for overall accesses (Ratio)
system.l2cache.demandAvgMshrMissLatency::cpu.inst 78865.546218                       # average overall mshr miss latency ((Tick/Count))
system.l2cache.demandAvgMshrMissLatency::cpu.data 75515.062492                       # average overall mshr miss latency ((Tick/Count))
system.l2cache.demandAvgMshrMissLatency::total 75528.555029                       # average overall mshr miss latency ((Tick/Count))
system.l2cache.overallAvgMshrMissLatency::cpu.inst 78865.546218                       # average overall mshr miss latency ((Tick/Count))
system.l2cache.overallAvgMshrMissLatency::cpu.data 75515.062492                       # average overall mshr miss latency ((Tick/Count))
system.l2cache.overallAvgMshrMissLatency::total 75528.555029                       # average overall mshr miss latency ((Tick/Count))
system.l2cache.replacements                    414749                       # number of replacements (Count)
system.l2cache.CleanEvict.mshrMisses::writebacks       159329                       # number of CleanEvict MSHR misses (Count)
system.l2cache.CleanEvict.mshrMisses::total       159329                       # number of CleanEvict MSHR misses (Count)
system.l2cache.CleanEvict.mshrMissRate::writebacks          inf                       # mshr miss rate for CleanEvict accesses (Ratio)
system.l2cache.CleanEvict.mshrMissRate::total          inf                       # mshr miss rate for CleanEvict accesses (Ratio)
system.l2cache.ReadExReq.hits::cpu.data            64                       # number of ReadExReq hits (Count)
system.l2cache.ReadExReq.hits::total               64                       # number of ReadExReq hits (Count)
system.l2cache.ReadExReq.misses::cpu.data         8409                       # number of ReadExReq misses (Count)
system.l2cache.ReadExReq.misses::total           8409                       # number of ReadExReq misses (Count)
system.l2cache.ReadExReq.missLatency::cpu.data    836702000                       # number of ReadExReq miss ticks (Tick)
system.l2cache.ReadExReq.missLatency::total    836702000                       # number of ReadExReq miss ticks (Tick)
system.l2cache.ReadExReq.accesses::cpu.data         8473                       # number of ReadExReq accesses(hits+misses) (Count)
system.l2cache.ReadExReq.accesses::total         8473                       # number of ReadExReq accesses(hits+misses) (Count)
system.l2cache.ReadExReq.missRate::cpu.data     0.992447                       # miss rate for ReadExReq accesses (Ratio)
system.l2cache.ReadExReq.missRate::total     0.992447                       # miss rate for ReadExReq accesses (Ratio)
system.l2cache.ReadExReq.avgMissLatency::cpu.data 99500.772981                       # average ReadExReq miss latency ((Tick/Count))
system.l2cache.ReadExReq.avgMissLatency::total 99500.772981                       # average ReadExReq miss latency ((Tick/Count))
system.l2cache.ReadExReq.mshrMisses::cpu.data         8409                       # number of ReadExReq MSHR misses (Count)
system.l2cache.ReadExReq.mshrMisses::total         8409                       # number of ReadExReq MSHR misses (Count)
system.l2cache.ReadExReq.mshrMissLatency::cpu.data    668522000                       # number of ReadExReq MSHR miss ticks (Tick)
system.l2cache.ReadExReq.mshrMissLatency::total    668522000                       # number of ReadExReq MSHR miss ticks (Tick)
system.l2cache.ReadExReq.mshrMissRate::cpu.data     0.992447                       # mshr miss rate for ReadExReq accesses (Ratio)
system.l2cache.ReadExReq.mshrMissRate::total     0.992447                       # mshr miss rate for ReadExReq accesses (Ratio)
system.l2cache.ReadExReq.avgMshrMissLatency::cpu.data 79500.772981                       # average ReadExReq mshr miss latency ((Tick/Count))
system.l2cache.ReadExReq.avgMshrMissLatency::total 79500.772981                       # average ReadExReq mshr miss latency ((Tick/Count))
system.l2cache.ReadSharedReq.hits::cpu.inst            6                       # number of ReadSharedReq hits (Count)
system.l2cache.ReadSharedReq.hits::cpu.data          452                       # number of ReadSharedReq hits (Count)
system.l2cache.ReadSharedReq.hits::total          458                       # number of ReadSharedReq hits (Count)
system.l2cache.ReadSharedReq.misses::cpu.inst         1547                       # number of ReadSharedReq misses (Count)
system.l2cache.ReadSharedReq.misses::cpu.data       374197                       # number of ReadSharedReq misses (Count)
system.l2cache.ReadSharedReq.misses::total       375744                       # number of ReadSharedReq misses (Count)
system.l2cache.ReadSharedReq.missLatency::cpu.inst    152945000                       # number of ReadSharedReq miss ticks (Tick)
system.l2cache.ReadSharedReq.missLatency::cpu.data  35707934000                       # number of ReadSharedReq miss ticks (Tick)
system.l2cache.ReadSharedReq.missLatency::total  35860879000                       # number of ReadSharedReq miss ticks (Tick)
system.l2cache.ReadSharedReq.accesses::cpu.inst         1553                       # number of ReadSharedReq accesses(hits+misses) (Count)
system.l2cache.ReadSharedReq.accesses::cpu.data       374649                       # number of ReadSharedReq accesses(hits+misses) (Count)
system.l2cache.ReadSharedReq.accesses::total       376202                       # number of ReadSharedReq accesses(hits+misses) (Count)
system.l2cache.ReadSharedReq.missRate::cpu.inst     0.996137                       # miss rate for ReadSharedReq accesses (Ratio)
system.l2cache.ReadSharedReq.missRate::cpu.data     0.998794                       # miss rate for ReadSharedReq accesses (Ratio)
system.l2cache.ReadSharedReq.missRate::total     0.998783                       # miss rate for ReadSharedReq accesses (Ratio)
system.l2cache.ReadSharedReq.avgMissLatency::cpu.inst 98865.546218                       # average ReadSharedReq miss latency ((Tick/Count))
system.l2cache.ReadSharedReq.avgMissLatency::cpu.data 95425.495127                       # average ReadSharedReq miss latency ((Tick/Count))
system.l2cache.ReadSharedReq.avgMissLatency::total 95439.658384                       # average ReadSharedReq miss latency ((Tick/Count))
system.l2cache.ReadSharedReq.mshrMisses::cpu.inst         1547                       # number of ReadSharedReq MSHR misses (Count)
system.l2cache.ReadSharedReq.mshrMisses::cpu.data       374197                       # number of ReadSharedReq MSHR misses (Count)
system.l2cache.ReadSharedReq.mshrMisses::total       375744                       # number of ReadSharedReq MSHR misses (Count)
system.l2cache.ReadSharedReq.mshrMissLatency::cpu.inst    122005000                       # number of ReadSharedReq MSHR miss ticks (Tick)
system.l2cache.ReadSharedReq.mshrMissLatency::cpu.data  28223994000                       # number of ReadSharedReq MSHR miss ticks (Tick)
system.l2cache.ReadSharedReq.mshrMissLatency::total  28345999000                       # number of ReadSharedReq MSHR miss ticks (Tick)
system.l2cache.ReadSharedReq.mshrMissRate::cpu.inst     0.996137                       # mshr miss rate for ReadSharedReq accesses (Ratio)
system.l2cache.ReadSharedReq.mshrMissRate::cpu.data     0.998794                       # mshr miss rate for ReadSharedReq accesses (Ratio)
system.l2cache.ReadSharedReq.mshrMissRate::total     0.998783                       # mshr miss rate for ReadSharedReq accesses (Ratio)
system.l2cache.ReadSharedReq.avgMshrMissLatency::cpu.inst 78865.546218                       # average ReadSharedReq mshr miss latency ((Tick/Count))
system.l2cache.ReadSharedReq.avgMshrMissLatency::cpu.data 75425.495127                       # average ReadSharedReq mshr miss latency ((Tick/Count))
system.l2cache.ReadSharedReq.avgMshrMissLatency::total 75439.658384                       # average ReadSharedReq mshr miss latency ((Tick/Count))
system.l2cache.WritebackDirty.hits::writebacks        40701                       # number of WritebackDirty hits (Count)
system.l2cache.WritebackDirty.hits::total        40701                       # number of WritebackDirty hits (Count)
system.l2cache.WritebackDirty.accesses::writebacks        40701                       # number of WritebackDirty accesses(hits+misses) (Count)
system.l2cache.WritebackDirty.accesses::total        40701                       # number of WritebackDirty accesses(hits+misses) (Count)
system.l2cache.power_state.pwrStateResidencyTicks::UNDEFINED 142326631000                       # Cumulative time (in ticks) in various power states (Tick)
system.l2cache.tags.tagsInUse             2042.987067                       # Average ticks per tags in use ((Tick/Count))
system.l2cache.tags.totalRefs                  608073                       # Total number of references to valid blocks. (Count)
system.l2cache.tags.sampledRefs                416797                       # Sample count of references to valid blocks. (Count)
system.l2cache.tags.avgRefs                  1.458919                       # Average number of references to valid blocks. ((Count/Count))
system.l2cache.tags.warmupTick                  86000                       # The tick when the warmup percentage was hit. (Tick)
system.l2cache.tags.occupancies::writebacks   420.107609                       # Average occupied blocks per tick, per requestor ((Count/Tick))
system.l2cache.tags.occupancies::cpu.inst    19.333813                       # Average occupied blocks per tick, per requestor ((Count/Tick))
system.l2cache.tags.occupancies::cpu.data  1603.545645                       # Average occupied blocks per tick, per requestor ((Count/Tick))
system.l2cache.tags.avgOccs::writebacks      0.205131                       # Average percentage of cache occupancy ((Ratio/Tick))
system.l2cache.tags.avgOccs::cpu.inst        0.009440                       # Average percentage of cache occupancy ((Ratio/Tick))
system.l2cache.tags.avgOccs::cpu.data        0.782981                       # Average percentage of cache occupancy ((Ratio/Tick))
system.l2cache.tags.avgOccs::total           0.997552                       # Average percentage of cache occupancy ((Ratio/Tick))
system.l2cache.tags.occupanciesTaskId::1024         2048                       # Occupied blocks per task id (Count)
system.l2cache.tags.ageTaskId_1024::0              72                       # Occupied blocks per task id, per block age (Count)
system.l2cache.tags.ageTaskId_1024::1             197                       # Occupied blocks per task id, per block age (Count)
system.l2cache.tags.ageTaskId_1024::2             507                       # Occupied blocks per task id, per block age (Count)
system.l2cache.tags.ageTaskId_1024::3            1272                       # Occupied blocks per task id, per block age (Count)
system.l2cache.tags.ratioOccsTaskId::1024            1                       # Ratio of occupied blocks and all blocks, per task id (Ratio)
system.l2cache.tags.tagAccesses               1951601                       # Number of tag accesses (Count)
system.l2cache.tags.dataAccesses              1951601                       # Number of data accesses (Count)
system.l2cache.tags.power_state.pwrStateResidencyTicks::UNDEFINED 142326631000                       # Cumulative time (in ticks) in various power states (Tick)
system.mem_ctrl.avgPriority_writebacks::samples     40398.00                       # Average QoS priority value for accepted requests (Count)
system.mem_ctrl.avgPriority_cpu.inst::samples      1547.00                       # Average QoS priority value for accepted requests (Count)
system.mem_ctrl.avgPriority_cpu.data::samples    377720.00                       # Average QoS priority value for accepted requests (Count)
system.mem_ctrl.priorityMinLatency       0.000000018750                       # per QoS priority minimum request to response latency (Second)
system.mem_ctrl.priorityMaxLatency       0.010604540500                       # per QoS priority maximum request to response latency (Second)
system.mem_ctrl.numReadWriteTurnArounds          2247                       # Number of turnarounds from READ to WRITE (Count)
system.mem_ctrl.numWriteReadTurnArounds          2247                       # Number of turnarounds from WRITE to READ (Count)
system.mem_ctrl.numStayReadState               835128                       # Number of times bus staying in READ state (Count)
system.mem_ctrl.numStayWriteState               38215                       # Number of times bus staying in WRITE state (Count)
system.mem_ctrl.readReqs                       384153                       # Number of read requests accepted (Count)
system.mem_ctrl.writeReqs                       40405                       # Number of write requests accepted (Count)
system.mem_ctrl.readBursts                     384153                       # Number of controller read bursts, including those serviced by the write queue (Count)
system.mem_ctrl.writeBursts                     40405                       # Number of controller write bursts, including those merged in the write queue (Count)
system.mem_ctrl.servicedByWrQ                    4886                       # Number of controller read bursts serviced by the write queue (Count)
system.mem_ctrl.mergedWrBursts                      7                       # Number of controller write bursts merged with an existing one (Count)
system.mem_ctrl.neitherReadNorWriteReqs             0                       # Number of requests that are neither read nor write (Count)
system.mem_ctrl.avgRdQLen                        1.00                       # Average read queue length when enqueuing ((Count/Tick))
system.mem_ctrl.avgWrQLen                       24.36                       # Average write queue length when enqueuing ((Count/Tick))
system.mem_ctrl.numRdRetry                          0                       # Number of times read queue was full causing retry (Count)
system.mem_ctrl.numWrRetry                          0                       # Number of times write queue was full causing retry (Count)
system.mem_ctrl.readPktSize::0                      0                       # Read request sizes (log2) (Count)
system.mem_ctrl.readPktSize::1                      0                       # Read request sizes (log2) (Count)
system.mem_ctrl.readPktSize::2                      0                       # Read request sizes (log2) (Count)
system.mem_ctrl.readPktSize::3                      0                       # Read request sizes (log2) (Count)
system.mem_ctrl.readPktSize::4                      0                       # Read request sizes (log2) (Count)
system.mem_ctrl.readPktSize::5                      0                       # Read request sizes (log2) (Count)
system.mem_ctrl.readPktSize::6                 384153                       # Read request sizes (log2) (Count)
system.mem_ctrl.writePktSize::0                     0                       # Write request sizes (log2) (Count)
system.mem_ctrl.writePktSize::1                     0                       # Write request sizes (log2) (Count)
system.mem_ctrl.writePktSize::2                     0                       # Write request sizes (log2) (Count)
system.mem_ctrl.writePktSize::3                     0                       # Write request sizes (log2) (Count)
system.mem_ctrl.writePktSize::4                     0                       # Write request sizes (log2) (Count)
system.mem_ctrl.writePktSize::5                     0                       # Write request sizes (log2) (Count)
system.mem_ctrl.writePktSize::6                 40405                       # Write request sizes (log2) (Count)
system.mem_ctrl.rdQLenPdf::0                   379265                       # What read queue length does an incoming req see (Count)
system.mem_ctrl.rdQLenPdf::1                        2                       # What read queue length does an incoming req see (Count)
system.mem_ctrl.rdQLenPdf::2                        0                       # What read queue length does an incoming req see (Count)
system.mem_ctrl.rdQLenPdf::3                        0                       # What read queue length does an incoming req see (Count)
system.mem_ctrl.rdQLenPdf::4                        0                       # What read queue length does an incoming req see (Count)
system.mem_ctrl.rdQLenPdf::5                        0                       # What read queue length does an incoming req see (Count)
system.mem_ctrl.rdQLenPdf::6                        0                       # What read queue length does an incoming req see (Count)
system.mem_ctrl.rdQLenPdf::7                        0                       # What read queue length does an incoming req see (Count)
system.mem_ctrl.rdQLenPdf::8                        0                       # What read queue length does an incoming req see (Count)
system.mem_ctrl.rdQLenPdf::9                        0                       # What read queue length does an incoming req see (Count)
system.mem_ctrl.rdQLenPdf::10                       0                       # What read queue length does an incoming req see (Count)
system.mem_ctrl.rdQLenPdf::11                       0                       # What read queue length does an incoming req see (Count)
system.mem_ctrl.rdQLenPdf::12                       0                       # What read queue length does an incoming req see (Count)
system.mem_ctrl.rdQLenPdf::13                       0                       # What read queue length does an incoming req see (Count)
system.mem_ctrl.rdQLenPdf::14                       0                       # What read queue length does an incoming req see (Count)
system.mem_ctrl.rdQLenPdf::15                       0                       # What read queue length does an incoming req see (Count)
system.mem_ctrl.rdQLenPdf::16                       0                       # What read queue length does an incoming req see (Count)
system.mem_ctrl.rdQLenPdf::17                       0                       # What read queue length does an incoming req see (Count)
system.mem_ctrl.rdQLenPdf::18                       0                       # What read queue length does an incoming req see (Count)
system.mem_ctrl.rdQLenPdf::19                       0                       # What read queue length does an incoming req see (Count)
system.mem_ctrl.rdQLenPdf::20                       0                       # What read queue length does an incoming req see (Count)
system.mem_ctrl.rdQLenPdf::21                       0                       # What read queue length does an incoming req see (Count)
system.mem_ctrl.rdQLenPdf::22                       0                       # What read queue length does an incoming req see (Count)
system.mem_ctrl.rdQLenPdf::23                       0                       # What read queue length does an incoming req see (Count)
system.mem_ctrl.rdQLenPdf::24                       0                       # What read queue length does an incoming req see (Count)
system.mem_ctrl.rdQLenPdf::25                       0                       # What read queue length does an incoming req see (Count)
system.mem_ctrl.rdQLenPdf::26                       0                       # What read queue length does an incoming req see (Count)
system.mem_ctrl.rdQLenPdf::27                       0                       # What read queue length does an incoming req see (Count)
system.mem_ctrl.rdQLenPdf::28                       0                       # What read queue length does an incoming req see (Count)
system.mem_ctrl.rdQLenPdf::29                       0                       # What read queue length does an incoming req see (Count)
system.mem_ctrl.rdQLenPdf::30                       0                       # What read queue length does an incoming req see (Count)
system.mem_ctrl.rdQLenPdf::31                       0                       # What read queue length does an incoming req see (Count)
system.mem_ctrl.wrQLenPdf::0                        1                       # What write queue length does an incoming req see (Count)
system.mem_ctrl.wrQLenPdf::1                        1                       # What write queue length does an incoming req see (Count)
system.mem_ctrl.wrQLenPdf::2                        1                       # What write queue length does an incoming req see (Count)
system.mem_ctrl.wrQLenPdf::3                        1                       # What write queue length does an incoming req see (Count)
system.mem_ctrl.wrQLenPdf::4                        1                       # What write queue length does an incoming req see (Count)
system.mem_ctrl.wrQLenPdf::5                        1                       # What write queue length does an incoming req see (Count)
system.mem_ctrl.wrQLenPdf::6                        1                       # What write queue length does an incoming req see (Count)
system.mem_ctrl.wrQLenPdf::7                        1                       # What write queue length does an incoming req see (Count)
system.mem_ctrl.wrQLenPdf::8                        1                       # What write queue length does an incoming req see (Count)
system.mem_ctrl.wrQLenPdf::9                        1                       # What write queue length does an incoming req see (Count)
system.mem_ctrl.wrQLenPdf::10                       1                       # What write queue length does an incoming req see (Count)
system.mem_ctrl.wrQLenPdf::11                       1                       # What write queue length does an incoming req see (Count)
system.mem_ctrl.wrQLenPdf::12                       1                       # What write queue length does an incoming req see (Count)
system.mem_ctrl.wrQLenPdf::13                       1                       # What write queue length does an incoming req see (Count)
system.mem_ctrl.wrQLenPdf::14                       1                       # What write queue length does an incoming req see (Count)
system.mem_ctrl.wrQLenPdf::15                    2178                       # What write queue length does an incoming req see (Count)
system.mem_ctrl.wrQLenPdf::16                    2186                       # What write queue length does an incoming req see (Count)
system.mem_ctrl.wrQLenPdf::17                    2245                       # What write queue length does an incoming req see (Count)
[...]
system.mem_ctrl.dram.bytesWritten::total      2585920                       # Number of bytes written to this memory (Byte)
system.mem_ctrl.dram.numReads::cpu.inst          1547                       # Number of read requests responded to by this memory (Count)
system.mem_ctrl.dram.numReads::cpu.data        382606                       # Number of read requests responded to by this memory (Count)
system.mem_ctrl.dram.numReads::total           384153                       # Number of read requests responded to by this memory (Count)
system.mem_ctrl.dram.numWrites::writebacks        40405                       # Number of write requests responded to by this memory (Count)
system.mem_ctrl.dram.numWrites::total           40405                       # Number of write requests responded to by this memory (Count)
system.mem_ctrl.dram.bwRead::cpu.inst          695639                       # Total read bandwidth from this memory ((Byte/Second))
system.mem_ctrl.dram.bwRead::cpu.data       172046397                       # Total read bandwidth from this memory ((Byte/Second))
system.mem_ctrl.dram.bwRead::total          172742036                       # Total read bandwidth from this memory ((Byte/Second))
system.mem_ctrl.dram.bwInstRead::cpu.inst       695639                       # Instruction read bandwidth from this memory ((Byte/Second))
system.mem_ctrl.dram.bwInstRead::total         695639                       # Instruction read bandwidth from this memory ((Byte/Second))
system.mem_ctrl.dram.bwWrite::writebacks     18168912                       # Write bandwidth from this memory ((Byte/Second))
system.mem_ctrl.dram.bwWrite::total          18168912                       # Write bandwidth from this memory ((Byte/Second))
system.mem_ctrl.dram.bwTotal::writebacks     18168912                       # Total bandwidth to/from this memory ((Byte/Second))
system.mem_ctrl.dram.bwTotal::cpu.inst         695639                       # Total bandwidth to/from this memory ((Byte/Second))
system.mem_ctrl.dram.bwTotal::cpu.data      172046397                       # Total bandwidth to/from this memory ((Byte/Second))
system.mem_ctrl.dram.bwTotal::total         190910948                       # Total bandwidth to/from this memory ((Byte/Second))
system.mem_ctrl.dram.readBursts                379267                       # Number of DRAM read bursts (Count)
system.mem_ctrl.dram.writeBursts                40377                       # Number of DRAM write bursts (Count)
system.mem_ctrl.dram.perBankRdBursts::0         22800                       # Per bank write bursts (Count)
system.mem_ctrl.dram.perBankRdBursts::1         23691                       # Per bank write bursts (Count)
system.mem_ctrl.dram.perBankRdBursts::2         24953                       # Per bank write bursts (Count)
system.mem_ctrl.dram.perBankRdBursts::3         24461                       # Per bank write bursts (Count)
system.mem_ctrl.dram.perBankRdBursts::4         23622                       # Per bank write bursts (Count)
system.mem_ctrl.dram.perBankRdBursts::5         23168                       # Per bank write bursts (Count)
system.mem_ctrl.dram.perBankRdBursts::6         23690                       # Per bank write bursts (Count)
system.mem_ctrl.dram.perBankRdBursts::7         22979                       # Per bank write bursts (Count)
system.mem_ctrl.dram.perBankRdBursts::8         23018                       # Per bank write bursts (Count)
system.mem_ctrl.dram.perBankRdBursts::9         23263                       # Per bank write bursts (Count)
system.mem_ctrl.dram.perBankRdBursts::10        22926                       # Per bank write bursts (Count)
system.mem_ctrl.dram.perBankRdBursts::11        24250                       # Per bank write bursts (Count)
system.mem_ctrl.dram.perBankRdBursts::12        24968                       # Per bank write bursts (Count)
system.mem_ctrl.dram.perBankRdBursts::13        24973                       # Per bank write bursts (Count)
system.mem_ctrl.dram.perBankRdBursts::14        23343                       # Per bank write bursts (Count)
system.mem_ctrl.dram.perBankRdBursts::15        23162                       # Per bank write bursts (Count)
system.mem_ctrl.dram.perBankWrBursts::0          2393                       # Per bank write bursts (Count)
system.mem_ctrl.dram.perBankWrBursts::1          2437                       # Per bank write bursts (Count)
system.mem_ctrl.dram.perBankWrBursts::2          2804                       # Per bank write bursts (Count)
system.mem_ctrl.dram.perBankWrBursts::3          2566                       # Per bank write bursts (Count)
system.mem_ctrl.dram.perBankWrBursts::4          2396                       # Per bank write bursts (Count)
system.mem_ctrl.dram.perBankWrBursts::5          2367                       # Per bank write bursts (Count)
system.mem_ctrl.dram.perBankWrBursts::6          2424                       # Per bank write bursts (Count)
system.mem_ctrl.dram.perBankWrBursts::7          2395                       # Per bank write bursts (Count)
system.mem_ctrl.dram.perBankWrBursts::8          2372                       # Per bank write bursts (Count)
system.mem_ctrl.dram.perBankWrBursts::9          2501                       # Per bank write bursts (Count)
system.mem_ctrl.dram.perBankWrBursts::10         2401                       # Per bank write bursts (Count)
system.mem_ctrl.dram.perBankWrBursts::11         2766                       # Per bank write bursts (Count)
system.mem_ctrl.dram.perBankWrBursts::12         3086                       # Per bank write bursts (Count)
system.mem_ctrl.dram.perBankWrBursts::13         2720                       # Per bank write bursts (Count)
system.mem_ctrl.dram.perBankWrBursts::14         2374                       # Per bank write bursts (Count)
system.mem_ctrl.dram.perBankWrBursts::15         2375                       # Per bank write bursts (Count)
system.mem_ctrl.dram.totQLat               2254006250                       # Total ticks spent queuing (Tick)
system.mem_ctrl.dram.totBusLat             1896335000                       # Total ticks spent in databus transfers (Tick)
system.mem_ctrl.dram.totMemAccLat          9365262500                       # Total ticks spent from burst creation until serviced by the DRAM (Tick)
system.mem_ctrl.dram.avgQLat                  5943.06                       # Average queueing delay per DRAM burst ((Tick/Count))
system.mem_ctrl.dram.avgBusLat                5000.00                       # Average bus latency per DRAM burst ((Tick/Count))
system.mem_ctrl.dram.avgMemAccLat            24693.06                       # Average memory access latency per DRAM burst ((Tick/Count))
system.mem_ctrl.dram.readRowHits               332655                       # Number of row buffer hits during reads (Count)
system.mem_ctrl.dram.writeRowHits               34411                       # Number of row buffer hits during writes (Count)
system.mem_ctrl.dram.readRowHitRate             87.71                       # Row buffer hit rate for reads (Ratio)
system.mem_ctrl.dram.writeRowHitRate            85.22                       # Row buffer hit rate for writes (Ratio)
system.mem_ctrl.dram.bytesPerActivate::samples        52574                       # Bytes accessed per row activation (Byte)
system.mem_ctrl.dram.bytesPerActivate::mean   510.832579                       # Bytes accessed per row activation (Byte)
system.mem_ctrl.dram.bytesPerActivate::gmean   348.499206                       # Bytes accessed per row activation (Byte)
system.mem_ctrl.dram.bytesPerActivate::stdev   361.477804                       # Bytes accessed per row activation (Byte)
system.mem_ctrl.dram.bytesPerActivate::0-127         9124     17.35%     17.35% # Bytes accessed per row activation (Byte)
system.mem_ctrl.dram.bytesPerActivate::128-255         7374     14.03%     31.38% # Bytes accessed per row activation (Byte)
system.mem_ctrl.dram.bytesPerActivate::256-383         4420      8.41%     39.79% # Bytes accessed per row activation (Byte)
system.mem_ctrl.dram.bytesPerActivate::384-511         6769     12.88%     52.66% # Bytes accessed per row activation (Byte)
system.mem_ctrl.dram.bytesPerActivate::512-639         6556     12.47%     65.13% # Bytes accessed per row activation (Byte)
system.mem_ctrl.dram.bytesPerActivate::640-767         2148      4.09%     69.22% # Bytes accessed per row activation (Byte)
system.mem_ctrl.dram.bytesPerActivate::768-895         1919      3.65%     72.87% # Bytes accessed per row activation (Byte)
system.mem_ctrl.dram.bytesPerActivate::896-1023         1985      3.78%     76.64% # Bytes accessed per row activation (Byte)
system.mem_ctrl.dram.bytesPerActivate::1024-1151        12279     23.36%    100.00% # Bytes accessed per row activation (Byte)
system.mem_ctrl.dram.bytesPerActivate::total        52574                       # Bytes accessed per row activation (Byte)
system.mem_ctrl.dram.dramBytesRead           24273088                       # Total bytes read (Byte)
system.mem_ctrl.dram.dramBytesWritten         2584128                       # Total bytes written (Byte)
system.mem_ctrl.dram.avgRdBW               170.544949                       # Average DRAM read bandwidth in MiBytes/s ((Byte/Second))
system.mem_ctrl.dram.avgWrBW                18.156321                       # Average DRAM write bandwidth in MiBytes/s ((Byte/Second))
system.mem_ctrl.dram.peakBW                  12800.00                       # Theoretical peak bandwidth in MiByte/s ((Byte/Second))
system.mem_ctrl.dram.busUtil                     1.47                       # Data bus utilization in percentage (Ratio)
system.mem_ctrl.dram.busUtilRead                 1.33                       # Data bus utilization in percentage for reads (Ratio)
system.mem_ctrl.dram.busUtilWrite                0.14                       # Data bus utilization in percentage for writes (Ratio)
system.mem_ctrl.dram.pageHitRate                87.47                       # Row buffer hit rate, read and write combined (Ratio)
system.mem_ctrl.dram.power_state.pwrStateResidencyTicks::UNDEFINED 142326631000                       # Cumulative time (in ticks) in various power states (Tick)
system.mem_ctrl.dram.rank0.actEnergy        195264720                       # Energy for activate commands per rank (pJ) (Joule)
system.mem_ctrl.dram.rank0.preEnergy        103778070                       # Energy for precharge commands per rank (pJ) (Joule)
system.mem_ctrl.dram.rank0.readEnergy      1352058960                       # Energy for read commands per rank (pJ) (Joule)
system.mem_ctrl.dram.rank0.writeEnergy      103262040                       # Energy for write commands per rank (pJ) (Joule)
system.mem_ctrl.dram.rank0.refreshEnergy 11235004560.000002                       # Energy for refresh commands per rank (pJ) (Joule)
system.mem_ctrl.dram.rank0.actBackEnergy  37213343190                       # Energy for active background per rank (pJ) (Joule)
system.mem_ctrl.dram.rank0.preBackEnergy  23315874240                       # Energy for precharge background per rank (pJ) (Joule)
system.mem_ctrl.dram.rank0.actPowerDownEnergy            0                       # Energy for active power-down per rank (pJ) (Joule)
system.mem_ctrl.dram.rank0.prePowerDownEnergy            0                       # Energy for precharge power-down per rank (pJ) (Joule)
system.mem_ctrl.dram.rank0.selfRefreshEnergy            0                       # Energy for self refresh per rank (pJ) (Joule)
system.mem_ctrl.dram.rank0.totalEnergy    73518585780                       # Total energy per rank (pJ) (Joule)
system.mem_ctrl.dram.rank0.averagePower    516.548346                       # Core power per rank (mW) (Watt)
system.mem_ctrl.dram.rank0.totalIdleTime            0                       # Total Idle time Per DRAM Rank (Tick)
system.mem_ctrl.dram.rank0.pwrStateTime::IDLE  60265007000                       # Time in different power states (Tick)
system.mem_ctrl.dram.rank0.pwrStateTime::REF   4752540000                       # Time in different power states (Tick)
system.mem_ctrl.dram.rank0.pwrStateTime::SREF            0                       # Time in different power states (Tick)
system.mem_ctrl.dram.rank0.pwrStateTime::PRE_PDN            0                       # Time in different power states (Tick)
system.mem_ctrl.dram.rank0.pwrStateTime::ACT  77309084000                       # Time in different power states (Tick)
system.mem_ctrl.dram.rank0.pwrStateTime::ACT_PDN            0                       # Time in different power states (Tick)
system.mem_ctrl.dram.rank1.actEnergy        180142200                       # Energy for activate commands per rank (pJ) (Joule)
system.mem_ctrl.dram.rank1.preEnergy         95740260                       # Energy for precharge commands per rank (pJ) (Joule)
system.mem_ctrl.dram.rank1.readEnergy      1355907420                       # Energy for read commands per rank (pJ) (Joule)
system.mem_ctrl.dram.rank1.writeEnergy      107505900                       # Energy for write commands per rank (pJ) (Joule)
system.mem_ctrl.dram.rank1.refreshEnergy 11235004560.000002                       # Energy for refresh commands per rank (pJ) (Joule)
system.mem_ctrl.dram.rank1.actBackEnergy  35689555350                       # Energy for active background per rank (pJ) (Joule)
system.mem_ctrl.dram.rank1.preBackEnergy  24599064000                       # Energy for precharge background per rank (pJ) (Joule)
system.mem_ctrl.dram.rank1.actPowerDownEnergy            0                       # Energy for active power-down per rank (pJ) (Joule)
system.mem_ctrl.dram.rank1.prePowerDownEnergy            0                       # Energy for precharge power-down per rank (pJ) (Joule)
system.mem_ctrl.dram.rank1.selfRefreshEnergy            0                       # Energy for self refresh per rank (pJ) (Joule)
system.mem_ctrl.dram.rank1.totalEnergy    73262919690                       # Total energy per rank (pJ) (Joule)
system.mem_ctrl.dram.rank1.averagePower    514.752012                       # Core power per rank (mW) (Watt)
system.mem_ctrl.dram.rank1.totalIdleTime            0                       # Total Idle time Per DRAM Rank (Tick)
system.mem_ctrl.dram.rank1.pwrStateTime::IDLE  63616054500                       # Time in different power states (Tick)
system.mem_ctrl.dram.rank1.pwrStateTime::REF   4752540000                       # Time in different power states (Tick)
system.mem_ctrl.dram.rank1.pwrStateTime::SREF            0                       # Time in different power states (Tick)
system.mem_ctrl.dram.rank1.pwrStateTime::PRE_PDN            0                       # Time in different power states (Tick)
system.mem_ctrl.dram.rank1.pwrStateTime::ACT  73958036500                       # Time in different power states (Tick)
system.mem_ctrl.dram.rank1.pwrStateTime::ACT_PDN            0                       # Time in different power states (Tick)
system.mem_ctrl.power_state.pwrStateResidencyTicks::UNDEFINED 142326631000                       # Cumulative time (in ticks) in various power states (Tick)
system.membus.transDist::ReadResp              375744                       # Transaction distribution (Count)
system.membus.transDist::WritebackDirty         40405                       # Transaction distribution (Count)
system.membus.transDist::CleanEvict            340749                       # Transaction distribution (Count)
system.membus.transDist::ReadExReq               8409                       # Transaction distribution (Count)
system.membus.transDist::ReadExResp              8409                       # Transaction distribution (Count)
system.membus.transDist::ReadSharedReq         375744                       # Transaction distribution (Count)
system.membus.pktCount_system.l2cache.mem_side_port::system.mem_ctrl.port      1149460                       # Packet count per connected requestor and responder (Count)
system.membus.pktCount_system.l2cache.mem_side_port::total      1149460                       # Packet count per connected requestor and responder (Count)
system.membus.pktCount::total                 1149460                       # Packet count per connected requestor and responder (Count)
system.membus.pktSize_system.l2cache.mem_side_port::system.mem_ctrl.port     27171712                       # Cumulative packet size per connected requestor and responder (Byte)
system.membus.pktSize_system.l2cache.mem_side_port::total     27171712                       # Cumulative packet size per connected requestor and responder (Byte)
system.membus.pktSize::total                 27171712                       # Cumulative packet size per connected requestor and responder (Byte)
system.membus.snoops                                0                       # Total snoops (Count)
system.membus.snoopTraffic                          0                       # Total snoop traffic (Byte)
system.membus.snoopFanout::samples             384153                       # Request fanout histogram (Count)
system.membus.snoopFanout::mean                     0                       # Request fanout histogram (Count)
system.membus.snoopFanout::stdev                    0                       # Request fanout histogram (Count)
system.membus.snoopFanout::underflows               0      0.00%      0.00% # Request fanout histogram (Count)
system.membus.snoopFanout::0                   384153    100.00%    100.00% # Request fanout histogram (Count)
system.membus.snoopFanout::1                        0      0.00%    100.00% # Request fanout histogram (Count)
system.membus.snoopFanout::overflows                0      0.00%    100.00% # Request fanout histogram (Count)
system.membus.snoopFanout::min_value                0                       # Request fanout histogram (Count)
system.membus.snoopFanout::max_value                0                       # Request fanout histogram (Count)
system.membus.snoopFanout::total               384153                       # Request fanout histogram (Count)
system.membus.power_state.pwrStateResidencyTicks::UNDEFINED 142326631000                       # Cumulative time (in ticks) in various power states (Tick)
system.membus.reqLayer2.occupancy           926927000                       # Layer occupancy (ticks) (Tick)
system.membus.reqLayer2.utilization               0.0                       # Layer utilization (Ratio)
system.membus.respLayer0.occupancy         2027004000                       # Layer occupancy (ticks) (Tick)
system.membus.respLayer0.utilization              0.0                       # Layer utilization (Ratio)
system.membus.snoop_filter.totRequests         765307                       # Total number of requests made to the snoop filter. (Count)
system.membus.snoop_filter.hitSingleRequests       381154                       # Number of requests hitting in the snoop filter with a single holder of the requested data. (Count)
system.membus.snoop_filter.hitMultiRequests            0                       # Number of requests hitting in the snoop filter with multiple (>1) holders of the requested data. (Count)
system.membus.snoop_filter.totSnoops                0                       # Total number of snoops made to the snoop filter. (Count)
system.membus.snoop_filter.hitSingleSnoops            0                       # Number of snoops hitting in the snoop filter with a single holder of the requested data. (Count)
system.membus.snoop_filter.hitMultiSnoops            0                       # Number of snoops hitting in the snoop filter with multiple (>1) holders of the requested data. (Count)
system.workload.inst.arm                            0                       # number of arm instructions executed (Count)
system.workload.inst.quiesce                        0                       # number of quiesce instructions executed (Count)

---------- End Simulation Statistics   ----------
