
---------- Begin Simulation Statistics ----------
simSeconds                                   0.142403                       # Number of seconds simulated (Second)
simTicks                                 142402515000                       # Number of ticks simulated (Tick)
finalTick                                142402515000                       # Number of ticks from beginning of simulation (restored from checkpoints and never reset) (Tick)
simFreq                                  1000000000000                       # The number of ticks per simulated second ((Tick/Second))
hostSeconds                                     61.61                       # Real time elapsed on the host (Second)
hostTickRate                               2311230537                       # The number of ticks simulated per host second (ticks/s) ((Tick/Second))
hostMemory                                     700232                       # Number of bytes of host memory used (Byte)
simInsts                                     26273270                       # Number of instructions simulated (Count)
simOps                                       39564399                       # Number of ops (including micro ops) simulated (Count)
hostInstRate                                   426415                       # Simulator instruction rate (inst/s) ((Count/Second))
hostOpRate                                     642128                       # Simulator op (including micro ops) rate (op/s) ((Count/Second))
system.clk_domain.clock                          1000                       # Clock period in ticks (Tick)
system.clk_domain.voltage_domain.voltage            1                       # Voltage in Volts (Volt)
system.cpu.numCycles                        142402515                       # Number of cpu cycles simulated (Cycle)
system.cpu.cpi                               5.420028                       # CPI: cycles per instruction (core level) ((Cycle/Count))
system.cpu.ipc                               0.184501                       # IPC: instructions per cycle (core level) ((Count/Cycle))
system.cpu.numWorkItemsStarted                      0                       # Number of work items this cpu started (Count)
system.cpu.numWorkItemsCompleted                    0                       # Number of work items this cpu completed (Count)
system.cpu.commitStats0.numInsts             26273393                       # Number of instructions committed (thread level) (Count)
system.cpu.commitStats0.numOps               39564666                       # Number of ops (including micro ops) committed (thread level) (Count)
system.cpu.commitStats0.numInstsNotNOP              0                       # Number of instructions committed excluding NOPs or prefetches (Count)
system.cpu.commitStats0.numOpsNotNOP                0                       # Number of Ops (including micro ops) Simulated (Count)
system.cpu.commitStats0.cpi                  5.420028                       # CPI: cycles per instruction (thread level) ((Cycle/Count))
system.cpu.commitStats0.ipc                  0.184501                       # IPC: instructions per cycle (thread level) ((Count/Cycle))
system.cpu.commitStats0.numMemRefs                  0                       # Number of memory references committed (Count)
system.cpu.commitStats0.numFpInsts            9237510                       # Number of float instructions (Count)
system.cpu.commitStats0.numIntInsts          34006770                       # Number of integer instructions (Count)
system.cpu.commitStats0.numLoadInsts         11231585                       # Number of load instructions (Count)
system.cpu.commitStats0.numStoreInsts         2411975                       # Number of store instructions (Count)
system.cpu.commitStats0.numVecInsts                 0                       # Number of vector instructions (Count)
system.cpu.commitStats0.committedInstType::No_OpClass       234717      0.59%      0.59% # Class of committed instruction. (Count)
system.cpu.commitStats0.committedInstType::IntAlu     20752524     52.45%     53.05% # Class of committed instruction. (Count)
system.cpu.commitStats0.committedInstType::IntMult         9467      0.02%     53.07% # Class of committed instruction. (Count)
system.cpu.commitStats0.committedInstType::IntDiv         1799      0.00%     53.07% # Class of committed instruction. (Count)
system.cpu.commitStats0.committedInstType::FloatAdd      2621868      6.63%     59.70% # Class of committed instruction. (Count)
system.cpu.commitStats0.committedInstType::FloatCmp            0      0.00%     59.70% # Class of committed instruction. (Count)
system.cpu.commitStats0.committedInstType::FloatCvt           32      0.00%     59.70% # Class of committed instruction. (Count)
system.cpu.commitStats0.committedInstType::FloatMult            0      0.00%     59.70% # Class of committed instruction. (Count)
system.cpu.commitStats0.committedInstType::FloatMultAcc            0      0.00%     59.70% # Class of committed instruction. (Count)
system.cpu.commitStats0.committedInstType::FloatDiv            0      0.00%     59.70% # Class of committed instruction. (Count)
system.cpu.commitStats0.committedInstType::FloatMisc            0      0.00%     59.70% # Class of committed instruction. (Count)
system.cpu.commitStats0.committedInstType::FloatSqrt            0      0.00%     59.70% # Class of committed instruction. (Count)
system.cpu.commitStats0.committedInstType::SimdAdd          572      0.00%     59.70% # Class of committed instruction. (Count)
system.cpu.commitStats0.committedInstType::SimdAddAcc            0      0.00%     59.70% # Class of committed instruction. (Count)
system.cpu.commitStats0.committedInstType::SimdAlu       123828      0.31%     60.02% # Class of committed instruction. (Count)
system.cpu.commitStats0.committedInstType::SimdCmp            6      0.00%     60.02% # Class of committed instruction. (Count)
system.cpu.commitStats0.committedInstType::SimdCvt         1504      0.00%     60.02% # Class of committed instruction. (Count)
system.cpu.commitStats0.committedInstType::SimdMisc       160992      0.41%     60.43% # Class of committed instruction. (Count)
system.cpu.commitStats0.committedInstType::SimdMult            0      0.00%     60.43% # Class of committed instruction. (Count)
system.cpu.commitStats0.committedInstType::SimdMultAcc            0      0.00%     60.43% # Class of committed instruction. (Count)
system.cpu.commitStats0.committedInstType::SimdMatMultAcc            0      0.00%     60.43% # Class of committed instruction. (Count)
system.cpu.commitStats0.committedInstType::SimdShift          238      0.00%     60.43% # Class of committed instruction. (Count)
system.cpu.commitStats0.committedInstType::SimdShiftAcc            0      0.00%     60.43% # Class of committed instruction. (Count)
system.cpu.commitStats0.committedInstType::SimdDiv            0      0.00%     60.43% # Class of committed instruction. (Count)
system.cpu.commitStats0.committedInstType::SimdSqrt            0      0.00%     60.43% # Class of committed instruction. (Count)
system.cpu.commitStats0.committedInstType::SimdFloatAdd       820484      2.07%     62.50% # Class of committed instruction. (Count)
system.cpu.commitStats0.committedInstType::SimdFloatAlu            0      0.00%     62.50% # Class of committed instruction. (Count)
system.cpu.commitStats0.committedInstType::SimdFloatCmp            0      0.00%     62.50% # Class of committed instruction. (Count)
system.cpu.commitStats0.committedInstType::SimdFloatCvt        56603      0.14%     62.64% # Class of committed instruction. (Count)
system.cpu.commitStats0.committedInstType::SimdFloatDiv        55656      0.14%     62.78% # Class of committed instruction. (Count)
system.cpu.commitStats0.committedInstType::SimdFloatMisc            0      0.00%     62.78% # Class of committed instruction. (Count)
system.cpu.commitStats0.committedInstType::SimdFloatMult      1080816      2.73%     65.52% # Class of committed instruction. (Count)
system.cpu.commitStats0.committedInstType::SimdFloatMultAcc            0      0.00%     65.52% # Class of committed instruction. (Count)
system.cpu.commitStats0.committedInstType::SimdFloatMatMultAcc            0      0.00%     65.52% # Class of committed instruction. (Count)
system.cpu.commitStats0.committedInstType::SimdFloatSqrt            0      0.00%     65.52% # Class of committed instruction. (Count)
system.cpu.commitStats0.committedInstType::SimdReduceAdd            0      0.00%     65.52% # Class of committed instruction. (Count)
system.cpu.commitStats0.committedInstType::SimdReduceAlu            0      0.00%     65.52% # Class of committed instruction. (Count)
system.cpu.commitStats0.committedInstType::SimdReduceCmp            0      0.00%     65.52% # Class of committed instruction. (Count)
system.cpu.commitStats0.committedInstType::SimdFloatReduceAdd            0      0.00%     65.52% # Class of committed instruction. (Count)
system.cpu.commitStats0.committedInstType::SimdFloatReduceCmp            0      0.00%     65.52% # Class of committed instruction. (Count)
system.cpu.commitStats0.committedInstType::SimdAes            0      0.00%     65.52% # Class of committed instruction. (Count)
system.cpu.commitStats0.committedInstType::SimdAesMix            0      0.00%     65.52% # Class of committed instruction. (Count)
system.cpu.commitStats0.committedInstType::SimdSha1Hash            0      0.00%     65.52% # Class of committed instruction. (Count)
system.cpu.commitStats0.committedInstType::SimdSha1Hash2            0      0.00%     65.52% # Class of committed instruction. (Count)
system.cpu.commitStats0.committedInstType::SimdSha256Hash            0      0.00%     65.52% # Class of committed instruction. (Count)
system.cpu.commitStats0.committedInstType::SimdSha256Hash2            0      0.00%     65.52% # Class of committed instruction. (Count)
system.cpu.commitStats0.committedInstType::SimdShaSigma2            0      0.00%     65.52% # Class of committed instruction. (Count)
system.cpu.commitStats0.committedInstType::SimdShaSigma3            0      0.00%     65.52% # Class of committed instruction. (Count)
system.cpu.commitStats0.committedInstType::SimdPredAlu            0      0.00%     65.52% # Class of committed instruction. (Count)
system.cpu.commitStats0.committedInstType::Matrix            0      0.00%     65.52% # Class of committed instruction. (Count)
system.cpu.commitStats0.committedInstType::MatrixMov            0      0.00%     65.52% # Class of committed instruction. (Count)
system.cpu.commitStats0.committedInstType::MatrixOP            0      0.00%     65.52% # Class of committed instruction. (Count)
system.cpu.commitStats0.committedInstType::MemRead      8456092     21.37%     86.89% # Class of committed instruction. (Count)
system.cpu.commitStats0.committedInstType::MemWrite      1432462      3.62%     90.51% # Class of committed instruction. (Count)
system.cpu.commitStats0.committedInstType::FloatMemRead      2775493      7.02%     97.52% # Class of committed instruction. (Count)
system.cpu.commitStats0.committedInstType::FloatMemWrite       979513      2.48%    100.00% # Class of committed instruction. (Count)
system.cpu.commitStats0.committedInstType::IprAccess            0      0.00%    100.00% # Class of committed instruction. (Count)
system.cpu.commitStats0.committedInstType::InstPrefetch            0      0.00%    100.00% # Class of committed instruction. (Count)
system.cpu.commitStats0.committedInstType::SimdUnitStrideLoad            0      0.00%    100.00% # Class of committed instruction. (Count)
system.cpu.commitStats0.committedInstType::SimdUnitStrideStore            0      0.00%    100.00% # Class of committed instruction. (Count)
system.cpu.commitStats0.committedInstType::SimdUnitStrideMaskLoad            0      0.00%    100.00% # Class of committed instruction. (Count)
system.cpu.commitStats0.committedInstType::SimdUnitStrideMaskStore            0      0.00%    100.00% # Class of committed instruction. (Count)
system.cpu.commitStats0.committedInstType::SimdStridedLoad            0      0.00%    100.00% # Class of committed instruction. (Count)
system.cpu.commitStats0.committedInstType::SimdStridedStore            0      0.00%    100.00% # Class of committed instruction. (Count)
system.cpu.commitStats0.committedInstType::SimdIndexedLoad            0      0.00%    100.00% # Class of committed instruction. (Count)
system.cpu.commitStats0.committedInstType::SimdIndexedStore            0      0.00%    100.00% # Class of committed instruction. (Count)
system.cpu.commitStats0.committedInstType::SimdWholeRegisterLoad            0      0.00%    100.00% # Class of committed instruction. (Count)
system.cpu.commitStats0.committedInstType::SimdWholeRegisterStore            0      0.00%    100.00% # Class of committed instruction. (Count)
system.cpu.commitStats0.committedInstType::SimdUnitStrideFaultOnlyFirstLoad            0      0.00%    100.00% # Class of committed instruction. (Count)
system.cpu.commitStats0.committedInstType::SimdUnitStrideSegmentedLoad            0      0.00%    100.00% # Class of committed instruction. (Count)
system.cpu.commitStats0.committedInstType::SimdUnitStrideSegmentedStore            0      0.00%    100.00% # Class of committed instruction. (Count)
system.cpu.commitStats0.committedInstType::SimdExt            0      0.00%    100.00% # Class of committed instruction. (Count)
system.cpu.commitStats0.committedInstType::SimdFloatExt            0      0.00%    100.00% # Class of committed instruction. (Count)
system.cpu.commitStats0.committedInstType::SimdConfig            0      0.00%    100.00% # Class of committed instruction. (Count)
system.cpu.commitStats0.committedInstType::total     39564666                       # Class of committed instruction. (Count)
system.cpu.commitStats0.committedControl::IsControl      1876971                       # Class of control type instructions committed (Count)
system.cpu.commitStats0.committedControl::IsDirectControl      1637553                       # Class of control type instructions committed (Count)
system.cpu.commitStats0.committedControl::IsIndirectControl       239390                       # Class of control type instructions committed (Count)
system.cpu.commitStats0.committedControl::IsCondControl      1396579                       # Class of control type instructions committed (Count)
system.cpu.commitStats0.committedControl::IsUncondControl       480364                       # Class of control type instructions committed (Count)
system.cpu.commitStats0.committedControl::IsCall       168837                       # Class of control type instructions committed (Count)
system.cpu.commitStats0.committedControl::IsReturn       168833                       # Class of control type instructions committed (Count)
system.cpu.dcache.demandHits::cpu.data       13259831                       # number of demand (read+write) hits (Count)
system.cpu.dcache.demandHits::total          13259831                       # number of demand (read+write) hits (Count)
system.cpu.dcache.overallHits::cpu.data      13259831                       # number of overall hits (Count)
system.cpu.dcache.overallHits::total         13259831                       # number of overall hits (Count)
system.cpu.dcache.demandMisses::cpu.data       383564                       # number of demand (read+write) misses (Count)
system.cpu.dcache.demandMisses::total          383564                       # number of demand (read+write) misses (Count)
system.cpu.dcache.overallMisses::cpu.data       383564                       # number of overall misses (Count)
system.cpu.dcache.overallMisses::total         383564                       # number of overall misses (Count)
system.cpu.dcache.demandMissLatency::cpu.data  38533789000                       # number of demand (read+write) miss ticks (Tick)
system.cpu.dcache.demandMissLatency::total  38533789000                       # number of demand (read+write) miss ticks (Tick)
system.cpu.dcache.overallMissLatency::cpu.data  38533789000                       # number of overall miss ticks (Tick)
system.cpu.dcache.overallMissLatency::total  38533789000                       # number of overall miss ticks (Tick)
system.cpu.dcache.demandAccesses::cpu.data     13643395                       # number of demand (read+write) accesses (Count)
system.cpu.dcache.demandAccesses::total      13643395                       # number of demand (read+write) accesses (Count)
system.cpu.dcache.overallAccesses::cpu.data     13643395                       # number of overall (read+write) accesses (Count)
system.cpu.dcache.overallAccesses::total     13643395                       # number of overall (read+write) accesses (Count)
system.cpu.dcache.demandMissRate::cpu.data     0.028114                       # miss rate for demand accesses (Ratio)
system.cpu.dcache.demandMissRate::total      0.028114                       # miss rate for demand accesses (Ratio)
system.cpu.dcache.overallMissRate::cpu.data     0.028114                       # miss rate for overall accesses (Ratio)
system.cpu.dcache.overallMissRate::total     0.028114                       # miss rate for overall accesses (Ratio)
system.cpu.dcache.demandAvgMissLatency::cpu.data 100462.475623                       # average overall miss latency in ticks ((Tick/Count))
system.cpu.dcache.demandAvgMissLatency::total 100462.475623                       # average overall miss latency in ticks ((Tick/Count))
system.cpu.dcache.overallAvgMissLatency::cpu.data 100462.475623                       # average overall miss latency ((Tick/Count))
system.cpu.dcache.overallAvgMissLatency::total 100462.475623                       # average overall miss latency ((Tick/Count))
system.cpu.dcache.blockedCycles::no_mshrs            0                       # number of cycles access was blocked (Cycle)
system.cpu.dcache.blockedCycles::no_targets            0                       # number of cycles access was blocked (Cycle)
system.cpu.dcache.blockedCauses::no_mshrs            0                       # number of times access was blocked (Count)
system.cpu.dcache.blockedCauses::no_targets            0                       # number of times access was blocked (Count)
system.cpu.dcache.avgBlocked::no_mshrs            nan                       # average number of cycles each access was blocked ((Cycle/Count))
system.cpu.dcache.avgBlocked::no_targets          nan                       # average number of cycles each access was blocked ((Cycle/Count))
system.cpu.dcache.writebacks::writebacks        40762                       # number of writebacks (Count)
system.cpu.dcache.writebacks::total             40762                       # number of writebacks (Count)
system.cpu.dcache.demandMshrMisses::cpu.data       383564                       # number of demand (read+write) MSHR misses (Count)
system.cpu.dcache.demandMshrMisses::total       383564                       # number of demand (read+write) MSHR misses (Count)
system.cpu.dcache.overallMshrMisses::cpu.data       383564                       # number of overall MSHR misses (Count)
system.cpu.dcache.overallMshrMisses::total       383564                       # number of overall MSHR misses (Count)
system.cpu.dcache.demandMshrMissLatency::cpu.data  37766661000                       # number of demand (read+write) MSHR miss ticks (Tick)
system.cpu.dcache.demandMshrMissLatency::total  37766661000                       # number of demand (read+write) MSHR miss ticks (Tick)
system.cpu.dcache.overallMshrMissLatency::cpu.data  37766661000                       # number of overall MSHR miss ticks (Tick)
system.cpu.dcache.overallMshrMissLatency::total  37766661000                       # number of overall MSHR miss ticks (Tick)
system.cpu.dcache.demandMshrMissRate::cpu.data     0.028114                       # mshr miss ratio for demand accesses (Ratio)
system.cpu.dcache.demandMshrMissRate::total     0.028114                       # mshr miss ratio for demand accesses (Ratio)
system.cpu.dcache.overallMshrMissRate::cpu.data     0.028114                       # mshr miss ratio for overall accesses (Ratio)
system.cpu.dcache.overallMshrMissRate::total     0.028114                       # mshr miss ratio for overall accesses (Ratio)
system.cpu.dcache.demandAvgMshrMissLatency::cpu.data 98462.475623                       # average overall mshr miss latency ((Tick/Count))
system.cpu.dcache.demandAvgMshrMissLatency::total 98462.475623                       # average overall mshr miss latency ((Tick/Count))
system.cpu.dcache.overallAvgMshrMissLatency::cpu.data 98462.475623                       # average overall mshr miss latency ((Tick/Count))
system.cpu.dcache.overallAvgMshrMissLatency::total 98462.475623                       # average overall mshr miss latency ((Tick/Count))
system.cpu.dcache.replacements                 383052                       # number of replacements (Count)
system.cpu.dcache.ReadReq.hits::cpu.data     10856395                       # number of ReadReq hits (Count)
system.cpu.dcache.ReadReq.hits::total        10856395                       # number of ReadReq hits (Count)
system.cpu.dcache.ReadReq.misses::cpu.data       375049                       # number of ReadReq misses (Count)
system.cpu.dcache.ReadReq.misses::total        375049                       # number of ReadReq misses (Count)
system.cpu.dcache.ReadReq.missLatency::cpu.data  37651579000                       # number of ReadReq miss ticks (Tick)
system.cpu.dcache.ReadReq.missLatency::total  37651579000                       # number of ReadReq miss ticks (Tick)
system.cpu.dcache.ReadReq.accesses::cpu.data     11231444                       # number of ReadReq accesses(hits+misses) (Count)
system.cpu.dcache.ReadReq.accesses::total     11231444                       # number of ReadReq accesses(hits+misses) (Count)
system.cpu.dcache.ReadReq.missRate::cpu.data     0.033393                       # miss rate for ReadReq accesses (Ratio)
system.cpu.dcache.ReadReq.missRate::total     0.033393                       # miss rate for ReadReq accesses (Ratio)
system.cpu.dcache.ReadReq.avgMissLatency::cpu.data 100391.092897                       # average ReadReq miss latency ((Tick/Count))
system.cpu.dcache.ReadReq.avgMissLatency::total 100391.092897                       # average ReadReq miss latency ((Tick/Count))
system.cpu.dcache.ReadReq.mshrMisses::cpu.data       375049                       # number of ReadReq MSHR misses (Count)
system.cpu.dcache.ReadReq.mshrMisses::total       375049                       # number of ReadReq MSHR misses (Count)
system.cpu.dcache.ReadReq.mshrMissLatency::cpu.data  36901481000                       # number of ReadReq MSHR miss ticks (Tick)
system.cpu.dcache.ReadReq.mshrMissLatency::total  36901481000                       # number of ReadReq MSHR miss ticks (Tick)
system.cpu.dcache.ReadReq.mshrMissRate::cpu.data     0.033393                       # mshr miss rate for ReadReq accesses (Ratio)
system.cpu.dcache.ReadReq.mshrMissRate::total     0.033393                       # mshr miss rate for ReadReq accesses (Ratio)
system.cpu.dcache.ReadReq.avgMshrMissLatency::cpu.data 98391.092897                       # average ReadReq mshr miss latency ((Tick/Count))
system.cpu.dcache.ReadReq.avgMshrMissLatency::total 98391.092897                       # average ReadReq mshr miss latency ((Tick/Count))
system.cpu.dcache.WriteReq.hits::cpu.data      2403436                       # number of WriteReq hits (Count)
system.cpu.dcache.WriteReq.hits::total        2403436                       # number of WriteReq hits (Count)
system.cpu.dcache.WriteReq.misses::cpu.data         8515                       # number of WriteReq misses (Count)
system.cpu.dcache.WriteReq.misses::total         8515                       # number of WriteReq misses (Count)
system.cpu.dcache.WriteReq.missLatency::cpu.data    882210000                       # number of WriteReq miss ticks (Tick)
system.cpu.dcache.WriteReq.missLatency::total    882210000                       # number of WriteReq miss ticks (Tick)
system.cpu.dcache.WriteReq.accesses::cpu.data      2411951                       # number of WriteReq accesses(hits+misses) (Count)
system.cpu.dcache.WriteReq.accesses::total      2411951                       # number of WriteReq accesses(hits+misses) (Count)
system.cpu.dcache.WriteReq.missRate::cpu.data     0.003530                       # miss rate for WriteReq accesses (Ratio)
system.cpu.dcache.WriteReq.missRate::total     0.003530                       # miss rate for WriteReq accesses (Ratio)
system.cpu.dcache.WriteReq.avgMissLatency::cpu.data 103606.576629                       # average WriteReq miss latency ((Tick/Count))
system.cpu.dcache.WriteReq.avgMissLatency::total 103606.576629                       # average WriteReq miss latency ((Tick/Count))
system.cpu.dcache.WriteReq.mshrMisses::cpu.data         8515                       # number of WriteReq MSHR misses (Count)
system.cpu.dcache.WriteReq.mshrMisses::total         8515                       # number of WriteReq MSHR misses (Count)
system.cpu.dcache.WriteReq.mshrMissLatency::cpu.data    865180000                       # number of WriteReq MSHR miss ticks (Tick)
system.cpu.dcache.WriteReq.mshrMissLatency::total    865180000                       # number of WriteReq MSHR miss ticks (Tick)
system.cpu.dcache.WriteReq.mshrMissRate::cpu.data     0.003530                       # mshr miss rate for WriteReq accesses (Ratio)
system.cpu.dcache.WriteReq.mshrMissRate::total     0.003530                       # mshr miss rate for WriteReq accesses (Ratio)
system.cpu.dcache.WriteReq.avgMshrMissLatency::cpu.data 101606.576629                       # average WriteReq mshr miss latency ((Tick/Count))
system.cpu.dcache.WriteReq.avgMshrMissLatency::total 101606.576629                       # average WriteReq mshr miss latency ((Tick/Count))
system.cpu.dcache.power_state.pwrStateResidencyTicks::UNDEFINED 142402515000                       # Cumulative time (in ticks) in various power states (Tick)
system.cpu.dcache.tags.tagsInUse           511.601751                       # Average ticks per tags in use ((Tick/Count))
system.cpu.dcache.tags.totalRefs             13643395                       # Total number of references to valid blocks. (Count)
system.cpu.dcache.tags.sampledRefs             383564                       # Sample count of references to valid blocks. (Count)
system.cpu.dcache.tags.avgRefs              35.570061                       # Average number of references to valid blocks. ((Count/Count))
system.cpu.dcache.tags.warmupTick              218000                       # The tick when the warmup percentage was hit. (Tick)
system.cpu.dcache.tags.occupancies::cpu.data   511.601751                       # Average occupied blocks per tick, per requestor ((Count/Tick))
system.cpu.dcache.tags.avgOccs::cpu.data     0.999222                       # Average percentage of cache occupancy ((Ratio/Tick))
system.cpu.dcache.tags.avgOccs::total        0.999222                       # Average percentage of cache occupancy ((Ratio/Tick))
system.cpu.dcache.tags.occupanciesTaskId::1024          512                       # Occupied blocks per task id (Count)
system.cpu.dcache.tags.ageTaskId_1024::0           23                       # Occupied blocks per task id, per block age (Count)
system.cpu.dcache.tags.ageTaskId_1024::1          130                       # Occupied blocks per task id, per block age (Count)
system.cpu.dcache.tags.ageTaskId_1024::2          140                       # Occupied blocks per task id, per block age (Count)
system.cpu.dcache.tags.ageTaskId_1024::3          219                       # Occupied blocks per task id, per block age (Count)
system.cpu.dcache.tags.ratioOccsTaskId::1024            1                       # Ratio of occupied blocks and all blocks, per task id (Ratio)
system.cpu.dcache.tags.tagAccesses           27670354                       # Number of tag accesses (Count)
system.cpu.dcache.tags.dataAccesses          27670354                       # Number of data accesses (Count)
system.cpu.dcache.tags.power_state.pwrStateResidencyTicks::UNDEFINED 142402515000                       # Cumulative time (in ticks) in various power states (Tick)
system.cpu.exec_context.thread_0.numMatAluAccesses            0                       # Number of matrix alu accesses (Count)
system.cpu.exec_context.thread_0.numCallsReturns       337670                       # Number of times a function call or return occured (Count)
system.cpu.exec_context.thread_0.numMatInsts            0                       # Number of matrix instructions (Count)
system.cpu.exec_context.thread_0.numIdleCycles     0.001000                       # Number of idle cycles (Cycle)
system.cpu.exec_context.thread_0.numBusyCycles 142402514.999000                       # Number of busy cycles (Cycle)
system.cpu.exec_context.thread_0.notIdleFraction     1.000000                       # Percentage of non-idle cycles (Ratio)
system.cpu.exec_context.thread_0.idleFraction     0.000000                       # Percentage of idle cycles (Ratio)
system.cpu.executeStats0.numInsts                   0                       # Number of executed instructions (Count)
system.cpu.executeStats0.numNop                     0                       # Number of nop insts executed (Count)
system.cpu.executeStats0.numBranches                0                       # Number of branches executed (Count)
system.cpu.executeStats0.numLoadInsts               0                       # Number of load instructions executed (Count)
system.cpu.executeStats0.numStoreInsts       13643560                       # Number of stores executed (Count)
system.cpu.executeStats0.instRate                   0                       # Inst execution rate ((Count/Cycle))
system.cpu.executeStats0.numFpAluAccesses      9237510                       # Number of float alu accesses (Count)
system.cpu.executeStats0.numFpRegReads        8499223                       # Number of times the floating registers were read (Count)
system.cpu.executeStats0.numFpRegWrites       8255054                       # Number of times the floating registers were written (Count)
system.cpu.executeStats0.numIntAluAccesses     34006770                       # Number of integer alu accesses (Count)
system.cpu.executeStats0.numIntRegReads      40494822                       # Number of times the integer registers were read (Count)
system.cpu.executeStats0.numIntRegWrites     25399066                       # Number of times the integer registers were written (Count)
system.cpu.executeStats0.numMemRefs          13643560                       # Number of memory refs (Count)
system.cpu.executeStats0.numMiscRegReads     17463328                       # Number of times the Misc registers were read (Count)
system.cpu.executeStats0.numMiscRegWrites           18                       # Number of times the Misc registers were written (Count)
system.cpu.executeStats0.numVecAluAccesses            0                       # Number of vector alu accesses (Count)
system.cpu.executeStats0.numDiscardedOps            0                       # Number of ops (including micro ops) which were discarded before commit (Count)
system.cpu.fetchStats0.numInsts              26273393                       # Number of instructions fetched (thread level) (Count)
system.cpu.fetchStats0.numOps                39564666                       # Number of ops (including micro ops) fetched (thread level) (Count)
system.cpu.fetchStats0.fetchRate             0.184501                       # Number of inst fetches per cycle ((Count/Cycle))
system.cpu.fetchStats0.numBranches            1876971                       # Number of branches fetched (Count)
system.cpu.fetchStats0.branchRate            0.013181                       # Number of branch fetches per cycle (Ratio)
system.cpu.fetchStats0.numFetchSuspends             0                       # Number of times Execute suspended instruction fetching (Count)
system.cpu.icache.demandHits::cpu.inst       38587053                       # number of demand (read+write) hits (Count)
system.cpu.icache.demandHits::total          38587053                       # number of demand (read+write) hits (Count)
system.cpu.icache.overallHits::cpu.inst      38587053                       # number of overall hits (Count)
system.cpu.icache.overallHits::total         38587053                       # number of overall hits (Count)
system.cpu.icache.demandMisses::cpu.inst         1719                       # number of demand (read+write) misses (Count)
system.cpu.icache.demandMisses::total            1719                       # number of demand (read+write) misses (Count)
system.cpu.icache.overallMisses::cpu.inst         1719                       # number of overall misses (Count)
system.cpu.icache.overallMisses::total           1719                       # number of overall misses (Count)
system.cpu.icache.demandMissLatency::cpu.inst    175228000                       # number of demand (read+write) miss ticks (Tick)
system.cpu.icache.demandMissLatency::total    175228000                       # number of demand (read+write) miss ticks (Tick)
system.cpu.icache.overallMissLatency::cpu.inst    175228000                       # number of overall miss ticks (Tick)
system.cpu.icache.overallMissLatency::total    175228000                       # number of overall miss ticks (Tick)
system.cpu.icache.demandAccesses::cpu.inst     38588772                       # number of demand (read+write) accesses (Count)
system.cpu.icache.demandAccesses::total      38588772                       # number of demand (read+write) accesses (Count)
system.cpu.icache.overallAccesses::cpu.inst     38588772                       # number of overall (read+write) accesses (Count)
system.cpu.icache.overallAccesses::total     38588772                       # number of overall (read+write) accesses (Count)
system.cpu.icache.demandMissRate::cpu.inst     0.000045                       # miss rate for demand accesses (Ratio)
system.cpu.icache.demandMissRate::total      0.000045                       # miss rate for demand accesses (Ratio)
system.cpu.icache.overallMissRate::cpu.inst     0.000045                       # miss rate for overall accesses (Ratio)
system.cpu.icache.overallMissRate::total     0.000045                       # miss rate for overall accesses (Ratio)
system.cpu.icache.demandAvgMissLatency::cpu.inst 101936.009308                       # average overall miss latency in ticks ((Tick/Count))
system.cpu.icache.demandAvgMissLatency::total 101936.009308                       # average overall miss latency in ticks ((Tick/Count))
system.cpu.icache.overallAvgMissLatency::cpu.inst 101936.009308                       # average overall miss latency ((Tick/Count))
system.cpu.icache.overallAvgMissLatency::total 101936.009308                       # average overall miss latency ((Tick/Count))
system.cpu.icache.blockedCycles::no_mshrs            0                       # number of cycles access was blocked (Cycle)
system.cpu.icache.blockedCycles::no_targets            0                       # number of cycles access was blocked (Cycle)
system.cpu.icache.blockedCauses::no_mshrs            0                       # number of times access was blocked (Count)
system.cpu.icache.blockedCauses::no_targets            0                       # number of times access was blocked (Count)
system.cpu.icache.avgBlocked::no_mshrs            nan                       # average number of cycles each access was blocked ((Cycle/Count))
system.cpu.icache.avgBlocked::no_targets          nan                       # average number of cycles each access was blocked ((Cycle/Count))
system.cpu.icache.demandMshrMisses::cpu.inst         1719                       # number of demand (read+write) MSHR misses (Count)
system.cpu.icache.demandMshrMisses::total         1719                       # number of demand (read+write) MSHR misses (Count)
system.cpu.icache.overallMshrMisses::cpu.inst         1719                       # number of overall MSHR misses (Count)
system.cpu.icache.overallMshrMisses::total         1719                       # number of overall MSHR misses (Count)
system.cpu.icache.demandMshrMissLatency::cpu.inst    171790000                       # number of demand (read+write) MSHR miss ticks (Tick)
system.cpu.icache.demandMshrMissLatency::total    171790000                       # number of demand (read+write) MSHR miss ticks (Tick)
system.cpu.icache.overallMshrMissLatency::cpu.inst    171790000                       # number of overall MSHR miss ticks (Tick)
system.cpu.icache.overallMshrMissLatency::total    171790000                       # number of overall MSHR miss ticks (Tick)
system.cpu.icache.demandMshrMissRate::cpu.inst     0.000045                       # mshr miss ratio for demand accesses (Ratio)
system.cpu.icache.demandMshrMissRate::total     0.000045                       # mshr miss ratio for demand accesses (Ratio)
system.cpu.icache.overallMshrMissRate::cpu.inst     0.000045                       # mshr miss ratio for overall accesses (Ratio)
system.cpu.icache.overallMshrMissRate::total     0.000045                       # mshr miss ratio for overall accesses (Ratio)
system.cpu.icache.demandAvgMshrMissLatency::cpu.inst 99936.009308                       # average overall mshr miss latency ((Tick/Count))
system.cpu.icache.demandAvgMshrMissLatency::total 99936.009308                       # average overall mshr miss latency ((Tick/Count))
system.cpu.icache.overallAvgMshrMissLatency::cpu.inst 99936.009308                       # average overall mshr miss latency ((Tick/Count))
system.cpu.icache.overallAvgMshrMissLatency::total 99936.009308                       # average overall mshr miss latency ((Tick/Count))
system.cpu.icache.replacements                   1209                       # number of replacements (Count)
system.cpu.icache.ReadReq.hits::cpu.inst     38587053                       # number of ReadReq hits (Count)
system.cpu.icache.ReadReq.hits::total        38587053                       # number of ReadReq hits (Count)
system.cpu.icache.ReadReq.misses::cpu.inst         1719                       # number of ReadReq misses (Count)
system.cpu.icache.ReadReq.misses::total          1719                       # number of ReadReq misses (Count)
system.cpu.icache.ReadReq.missLatency::cpu.inst    175228000                       # number of ReadReq miss ticks (Tick)
system.cpu.icache.ReadReq.missLatency::total    175228000                       # number of ReadReq miss ticks (Tick)
system.cpu.icache.ReadReq.accesses::cpu.inst     38588772                       # number of ReadReq accesses(hits+misses) (Count)
system.cpu.icache.ReadReq.accesses::total     38588772                       # number of ReadReq accesses(hits+misses) (Count)
system.cpu.icache.ReadReq.missRate::cpu.inst     0.000045                       # miss rate for ReadReq accesses (Ratio)
system.cpu.icache.ReadReq.missRate::total     0.000045                       # miss rate for ReadReq accesses (Ratio)
system.cpu.icache.ReadReq.avgMissLatency::cpu.inst 101936.009308                       # average ReadReq miss latency ((Tick/Count))
system.cpu.icache.ReadReq.avgMissLatency::total 101936.009308                       # average ReadReq miss latency ((Tick/Count))
system.cpu.icache.ReadReq.mshrMisses::cpu.inst         1719                       # number of ReadReq MSHR misses (Count)
system.cpu.icache.ReadReq.mshrMisses::total         1719                       # number of ReadReq MSHR misses (Count)
system.cpu.icache.ReadReq.mshrMissLatency::cpu.inst    171790000                       # number of ReadReq MSHR miss ticks (Tick)
system.cpu.icache.ReadReq.mshrMissLatency::total    171790000                       # number of ReadReq MSHR miss ticks (Tick)
system.cpu.icache.ReadReq.mshrMissRate::cpu.inst     0.000045                       # mshr miss rate for ReadReq accesses (Ratio)
system.cpu.icache.ReadReq.mshrMissRate::total     0.000045                       # mshr miss rate for ReadReq accesses (Ratio)
system.cpu.icache.ReadReq.avgMshrMissLatency::cpu.inst 99936.009308                       # average ReadReq mshr miss latency ((Tick/Count))
system.cpu.icache.ReadReq.avgMshrMissLatency::total 99936.009308                       # average ReadReq mshr miss latency ((Tick/Count))
system.cpu.icache.power_state.pwrStateResidencyTicks::UNDEFINED 142402515000                       # Cumulative time (in ticks) in various power states (Tick)
system.cpu.icache.tags.tagsInUse           504.565177                       # Average ticks per tags in use ((Tick/Count))
system.cpu.icache.tags.totalRefs             38588772                       # Total number of references to valid blocks. (Count)
system.cpu.icache.tags.sampledRefs               1719                       # Sample count of references to valid blocks. (Count)
system.cpu.icache.tags.avgRefs           22448.383944                       # Average number of references to valid blocks. ((Count/Count))
system.cpu.icache.tags.warmupTick              107000                       # The tick when the warmup percentage was hit. (Tick)
system.cpu.icache.tags.occupancies::cpu.inst   504.565177                       # Average occupied blocks per tick, per requestor ((Count/Tick))
system.cpu.icache.tags.avgOccs::cpu.inst     0.985479                       # Average percentage of cache occupancy ((Ratio/Tick))
system.cpu.icache.tags.avgOccs::total        0.985479                       # Average percentage of cache occupancy ((Ratio/Tick))
system.cpu.icache.tags.occupanciesTaskId::1024          510                       # Occupied blocks per task id (Count)
system.cpu.icache.tags.ageTaskId_1024::0           52                       # Occupied blocks per task id, per block age (Count)
system.cpu.icache.tags.ageTaskId_1024::1           85                       # Occupied blocks per task id, per block age (Count)
system.cpu.icache.tags.ageTaskId_1024::2            8                       # Occupied blocks per task id, per block age (Count)
system.cpu.icache.tags.ageTaskId_1024::3          105                       # Occupied blocks per task id, per block age (Count)
system.cpu.icache.tags.ageTaskId_1024::4          260                       # Occupied blocks per task id, per block age (Count)
system.cpu.icache.tags.ratioOccsTaskId::1024     0.996094                       # Ratio of occupied blocks and all blocks, per task id (Ratio)
system.cpu.icache.tags.tagAccesses           77179263                       # Number of tag accesses (Count)
system.cpu.icache.tags.dataAccesses          77179263                       # Number of data accesses (Count)
system.cpu.icache.tags.power_state.pwrStateResidencyTicks::UNDEFINED 142402515000                       # Cumulative time (in ticks) in various power states (Tick)
system.cpu.interrupts.clk_domain.clock          16000                       # Clock period in ticks (Tick)
system.cpu.mmu.dtb.rdAccesses                11231607                       # TLB accesses on read requests (Count)
system.cpu.mmu.dtb.wrAccesses                 2411980                       # TLB accesses on write requests (Count)
system.cpu.mmu.dtb.rdMisses                     40266                       # TLB misses on read requests (Count)
system.cpu.mmu.dtb.wrMisses                       176                       # TLB misses on write requests (Count)
system.cpu.mmu.dtb.walker.power_state.pwrStateResidencyTicks::UNDEFINED 142402515000                       # Cumulative time (in ticks) in various power states (Tick)
system.cpu.mmu.itb.rdAccesses                       0                       # TLB accesses on read requests (Count)
system.cpu.mmu.itb.wrAccesses                38588843                       # TLB accesses on write requests (Count)
system.cpu.mmu.itb.rdMisses                         0                       # TLB misses on read requests (Count)
system.cpu.mmu.itb.wrMisses                       244                       # TLB misses on write requests (Count)
system.cpu.mmu.itb.walker.power_state.pwrStateResidencyTicks::UNDEFINED 142402515000                       # Cumulative time (in ticks) in various power states (Tick)
system.cpu.power_state.pwrStateResidencyTicks::ON 142402515000                       # Cumulative time (in ticks) in various power states (Tick)
system.cpu.thread_0.numInsts                        0                       # Number of Instructions committed (Count)
system.cpu.thread_0.numOps                          0                       # Number of Ops committed (Count)
system.cpu.thread_0.numMemRefs                      0                       # Number of Memory References (Count)
system.cpu.workload.numSyscalls                    75                       # Number of system calls (Count)
system.l2bus.transDist::ReadResp               376768                       # Transaction distribution (Count)
system.l2bus.transDist::WritebackDirty          81213                       # Transaction distribution (Count)
system.l2bus.transDist::CleanEvict             720024                       # Transaction distribution (Count)
system.l2bus.transDist::ReadExReq                8515                       # Transaction distribution (Count)
system.l2bus.transDist::ReadExResp               8515                       # Transaction distribution (Count)
system.l2bus.transDist::ReadSharedReq          376768                       # Transaction distribution (Count)
system.l2bus.pktCount_system.cpu.icache.mem_side_port::system.l2cache.cpu_side_port         4647                       # Packet count per connected requestor and responder (Count)
system.l2bus.pktCount_system.cpu.dcache.mem_side_port::system.l2cache.cpu_side_port      1150180                       # Packet count per connected requestor and responder (Count)
system.l2bus.pktCount::total                  1154827                       # Packet count per connected requestor and responder (Count)
system.l2bus.pktSize_system.cpu.icache.mem_side_port::system.l2cache.cpu_side_port       110016                       # Cumulative packet size per connected requestor and responder (Byte)
system.l2bus.pktSize_system.cpu.dcache.mem_side_port::system.l2cache.cpu_side_port     27156864                       # Cumulative packet size per connected requestor and responder (Byte)
system.l2bus.pktSize::total                  27266880                       # Cumulative packet size per connected requestor and responder (Byte)
system.l2bus.snoops                            416976                       # Total snoops (Count)
system.l2bus.snoopTraffic                     2588864                       # Total snoop traffic (Byte)
system.l2bus.snoopFanout::samples              802259                       # Request fanout histogram (Count)
system.l2bus.snoopFanout::mean               0.241431                       # Request fanout histogram (Count)
system.l2bus.snoopFanout::stdev              0.427951                       # Request fanout histogram (Count)
system.l2bus.snoopFanout::underflows                0      0.00%      0.00% # Request fanout histogram (Count)
system.l2bus.snoopFanout::0                    608569     75.86%     75.86% # Request fanout histogram (Count)
system.l2bus.snoopFanout::1                    193690     24.14%    100.00% # Request fanout histogram (Count)
system.l2bus.snoopFanout::2                         0      0.00%    100.00% # Request fanout histogram (Count)
system.l2bus.snoopFanout::overflows                 0      0.00%    100.00% # Request fanout histogram (Count)
system.l2bus.snoopFanout::min_value                 0                       # Request fanout histogram (Count)
system.l2bus.snoopFanout::max_value                 1                       # Request fanout histogram (Count)
system.l2bus.snoopFanout::total                802259                       # Request fanout histogram (Count)
system.l2bus.power_state.pwrStateResidencyTicks::UNDEFINED 142402515000                       # Cumulative time (in ticks) in various power states (Tick)
system.l2bus.reqLayer0.occupancy            851068000                       # Layer occupancy (ticks) (Tick)
system.l2bus.reqLayer0.utilization                0.0                       # Layer utilization (Ratio)
system.l2bus.respLayer0.occupancy             5157000                       # Layer occupancy (ticks) (Tick)
system.l2bus.respLayer0.utilization               0.0                       # Layer utilization (Ratio)
system.l2bus.respLayer1.occupancy          1150692000                       # Layer occupancy (ticks) (Tick)
system.l2bus.respLayer1.utilization               0.0                       # Layer utilization (Ratio)
system.l2bus.snoop_filter.totRequests          769544                       # Total number of requests made to the snoop filter. (Count)
system.l2bus.snoop_filter.hitSingleRequests       384261                       # Number of requests hitting in the snoop filter with a single holder of the requested data. (Count)
system.l2bus.snoop_filter.hitMultiRequests            0                       # Number of requests hitting in the snoop filter with multiple (>1) holders of the requested data. (Count)
system.l2bus.snoop_filter.totSnoops            193690                       # Total number of snoops made to the snoop filter. (Count)
system.l2bus.snoop_filter.hitSingleSnoops       193690                       # Number of snoops hitting in the snoop filter with a single holder of the requested data. (Count)
system.l2bus.snoop_filter.hitMultiSnoops            0                       # Number of snoops hitting in the snoop filter with multiple (>1) holders of the requested data. (Count)
system.l2cache.demandHits::cpu.inst                53                       # number of demand (read+write) hits (Count)
system.l2cache.demandHits::cpu.data               547                       # number of demand (read+write) hits (Count)
system.l2cache.demandHits::total                  600                       # number of demand (read+write) hits (Count)
system.l2cache.overallHits::cpu.inst               53                       # number of overall hits (Count)
system.l2cache.overallHits::cpu.data              547                       # number of overall hits (Count)
system.l2cache.overallHits::total                 600                       # number of overall hits (Count)
system.l2cache.demandMisses::cpu.inst            1666                       # number of demand (read+write) misses (Count)
system.l2cache.demandMisses::cpu.data          383017                       # number of demand (read+write) misses (Count)
system.l2cache.demandMisses::total             384683                       # number of demand (read+write) misses (Count)
system.l2cache.overallMisses::cpu.inst           1666                       # number of overall misses (Count)
system.l2cache.overallMisses::cpu.data         383017                       # number of overall misses (Count)
system.l2cache.overallMisses::total            384683                       # number of overall misses (Count)
system.l2cache.demandMissLatency::cpu.inst    165503000                       # number of demand (read+write) miss ticks (Tick)
system.l2cache.demandMissLatency::cpu.data  36604480000                       # number of demand (read+write) miss ticks (Tick)
system.l2cache.demandMissLatency::total   36769983000                       # number of demand (read+write) miss ticks (Tick)
system.l2cache.overallMissLatency::cpu.inst    165503000                       # number of overall miss ticks (Tick)
system.l2cache.overallMissLatency::cpu.data  36604480000                       # number of overall miss ticks (Tick)
system.l2cache.overallMissLatency::total  36769983000                       # number of overall miss ticks (Tick)
system.l2cache.demandAccesses::cpu.inst          1719                       # number of demand (read+write) accesses (Count)
system.l2cache.demandAccesses::cpu.data        383564                       # number of demand (read+write) accesses (Count)
system.l2cache.demandAccesses::total           385283                       # number of demand (read+write) accesses (Count)
system.l2cache.overallAccesses::cpu.inst         1719                       # number of overall (read+write) accesses (Count)
system.l2cache.overallAccesses::cpu.data       383564                       # number of overall (read+write) accesses (Count)
system.l2cache.overallAccesses::total          385283                       # number of overall (read+write) accesses (Count)
system.l2cache.demandMissRate::cpu.inst      0.969168                       # miss rate for demand accesses (Ratio)
system.l2cache.demandMissRate::cpu.data      0.998574                       # miss rate for demand accesses (Ratio)
system.l2cache.demandMissRate::total         0.998443                       # miss rate for demand accesses (Ratio)
system.l2cache.overallMissRate::cpu.inst     0.969168                       # miss rate for overall accesses (Ratio)
system.l2cache.overallMissRate::cpu.data     0.998574                       # miss rate for overall accesses (Ratio)
system.l2cache.overallMissRate::total        0.998443                       # miss rate for overall accesses (Ratio)
system.l2cache.demandAvgMissLatency::cpu.inst 99341.536615                       # average overall miss latency in ticks ((Tick/Count))
system.l2cache.demandAvgMissLatency::cpu.data 95568.812873                       # average overall miss latency in ticks ((Tick/Count))
system.l2cache.demandAvgMissLatency::total 95585.151930                       # average overall miss latency in ticks ((Tick/Count))
system.l2cache.overallAvgMissLatency::cpu.inst 99341.536615                       # average overall miss latency ((Tick/Count))
system.l2cache.overallAvgMissLatency::cpu.data 95568.812873                       # average overall miss latency ((Tick/Count))
system.l2cache.overallAvgMissLatency::total 95585.151930                       # average overall miss latency ((Tick/Count))
system.l2cache.blockedCycles::no_mshrs              0                       # number of cycles access was blocked (Cycle)
system.l2cache.blockedCycles::no_targets            0                       # number of cycles access was blocked (Cycle)
system.l2cache.blockedCauses::no_mshrs              0                       # number of times access was blocked (Count)
system.l2cache.blockedCauses::no_targets            0                       # number of times access was blocked (Count)
system.l2cache.avgBlocked::no_mshrs               nan                       # average number of cycles each access was blocked ((Cycle/Count))
system.l2cache.avgBlocked::no_targets             nan                       # average number of cycles each access was blocked ((Cycle/Count))
system.l2cache.writebacks::writebacks           40451                       # number of writebacks (Count)
system.l2cache.writebacks::total                40451                       # number of writebacks (Count)
system.l2cache.demandMshrMisses::cpu.inst         1666                       # number of demand (read+write) MSHR misses (Count)
system.l2cache.demandMshrMisses::cpu.data       383017                       # number of demand (read+write) MSHR misses (Count)
system.l2cache.demandMshrMisses::total         384683                       # number of demand (read+write) MSHR misses (Count)
system.l2cache.overallMshrMisses::cpu.inst         1666                       # number of overall MSHR misses (Count)
system.l2cache.overallMshrMisses::cpu.data       383017                       # number of overall MSHR misses (Count)
system.l2cache.overallMshrMisses::total        384683                       # number of overall MSHR misses (Count)
system.l2cache.demandMshrMissLatency::cpu.inst    132183000                       # number of demand (read+write) MSHR miss ticks (Tick)
system.l2cache.demandMshrMissLatency::cpu.data  28944140000                       # number of demand (read+write) MSHR miss ticks (Tick)
system.l2cache.demandMshrMissLatency::total  29076323000                       # number of demand (read+write) MSHR miss ticks (Tick)
system.l2cache.overallMshrMissLatency::cpu.inst    132183000                       # number of overall MSHR miss ticks (Tick)
system.l2cache.overallMshrMissLatency::cpu.data  28944140000                       # number of overall MSHR miss ticks (Tick)
system.l2cache.overallMshrMissLatency::total  29076323000                       # number of overall MSHR miss ticks (Tick)
system.l2cache.demandMshrMissRate::cpu.inst     0.969168                       # mshr miss ratio for demand accesses (Ratio)
system.l2cache.demandMshrMissRate::cpu.data     0.998574                       # mshr miss ratio for demand accesses (Ratio)
system.l2cache.demandMshrMissRate::total     0.998443                       # mshr miss ratio for demand accesses (Ratio)
system.l2cache.overallMshrMissRate::cpu.inst     0.969168                       # mshr miss ratio for overall accesses (Ratio)
system.l2cache.overallMshrMissRate::cpu.data     0.998574                       # mshr miss ratio for overall accesses (Ratio)
system.l2cache.overallMshrMissRate::total     0.998443                       # mshr miss ratio for overall accesses (Ratio)
system.l2cache.demandAvgMshrMissLatency::cpu.inst 79341.536615                       # average overall mshr miss latency ((Tick/Count))
system.l2cache.demandAvgMshrMissLatency::cpu.data 75568.812873                       # average overall mshr miss latency ((Tick/Count))
system.l2cache.demandAvgMshrMissLatency::total 75585.151930                       # average overall mshr miss latency ((Tick/Count))
system.l2cache.overallAvgMshrMissLatency::cpu.inst 79341.536615                       # average overall mshr miss latency ((Tick/Count))
system.l2cache.overallAvgMshrMissLatency::cpu.data 75568.812873                       # average overall mshr miss latency ((Tick/Count))
system.l2cache.overallAvgMshrMissLatency::total 75585.151930                       # average overall mshr miss latency ((Tick/Count))
system.l2cache.replacements                    416976                       # number of replacements (Count)
system.l2cache.CleanEvict.mshrMisses::writebacks       159904                       # number of CleanEvict MSHR misses (Count)
system.l2cache.CleanEvict.mshrMisses::total       159904                       # number of CleanEvict MSHR misses (Count)
system.l2cache.CleanEvict.mshrMissRate::writebacks          inf                       # mshr miss rate for CleanEvict accesses (Ratio)
system.l2cache.CleanEvict.mshrMissRate::total          inf                       # mshr miss rate for CleanEvict accesses (Ratio)
system.l2cache.ReadExReq.hits::cpu.data            78                       # number of ReadExReq hits (Count)
system.l2cache.ReadExReq.hits::total               78                       # number of ReadExReq hits (Count)
system.l2cache.ReadExReq.misses::cpu.data         8437                       # number of ReadExReq misses (Count)
system.l2cache.ReadExReq.misses::total           8437                       # number of ReadExReq misses (Count)
system.l2cache.ReadExReq.missLatency::cpu.data    837997000                       # number of ReadExReq miss ticks (Tick)
system.l2cache.ReadExReq.missLatency::total    837997000                       # number of ReadExReq miss ticks (Tick)
system.l2cache.ReadExReq.accesses::cpu.data         8515                       # number of ReadExReq accesses(hits+misses) (Count)
system.l2cache.ReadExReq.accesses::total         8515                       # number of ReadExReq accesses(hits+misses) (Count)
system.l2cache.ReadExReq.missRate::cpu.data     0.990840                       # miss rate for ReadExReq accesses (Ratio)
system.l2cache.ReadExReq.missRate::total     0.990840                       # miss rate for ReadExReq accesses (Ratio)
system.l2cache.ReadExReq.avgMissLatency::cpu.data 99324.048833                       # average ReadExReq miss latency ((Tick/Count))
system.l2cache.ReadExReq.avgMissLatency::total 99324.048833                       # average ReadExReq miss latency ((Tick/Count))
system.l2cache.ReadExReq.mshrMisses::cpu.data         8437                       # number of ReadExReq MSHR misses (Count)
system.l2cache.ReadExReq.mshrMisses::total         8437                       # number of ReadExReq MSHR misses (Count)
system.l2cache.ReadExReq.mshrMissLatency::cpu.data    669257000                       # number of ReadExReq MSHR miss ticks (Tick)
system.l2cache.ReadExReq.mshrMissLatency::total    669257000                       # number of ReadExReq MSHR miss ticks (Tick)
system.l2cache.ReadExReq.mshrMissRate::cpu.data     0.990840                       # mshr miss rate for ReadExReq accesses (Ratio)
system.l2cache.ReadExReq.mshrMissRate::total     0.990840                       # mshr miss rate for ReadExReq accesses (Ratio)
system.l2cache.ReadExReq.avgMshrMissLatency::cpu.data 79324.048833                       # average ReadExReq mshr miss latency ((Tick/Count))
system.l2cache.ReadExReq.avgMshrMissLatency::total 79324.048833                       # average ReadExReq mshr miss latency ((Tick/Count))
system.l2cache.ReadSharedReq.hits::cpu.inst           53                       # number of ReadSharedReq hits (Count)
system.l2cache.ReadSharedReq.hits::cpu.data          469                       # number of ReadSharedReq hits (Count)
system.l2cache.ReadSharedReq.hits::total          522                       # number of ReadSharedReq hits (Count)
system.l2cache.ReadSharedReq.misses::cpu.inst         1666                       # number of ReadSharedReq misses (Count)
system.l2cache.ReadSharedReq.misses::cpu.data       374580                       # number of ReadSharedReq misses (Count)
system.l2cache.ReadSharedReq.misses::total       376246                       # number of ReadSharedReq misses (Count)
system.l2cache.ReadSharedReq.missLatency::cpu.inst    165503000                       # number of ReadSharedReq miss ticks (Tick)
system.l2cache.ReadSharedReq.missLatency::cpu.data  35766483000                       # number of ReadSharedReq miss ticks (Tick)
system.l2cache.ReadSharedReq.missLatency::total  35931986000                       # number of ReadSharedReq miss ticks (Tick)
system.l2cache.ReadSharedReq.accesses::cpu.inst         1719                       # number of ReadSharedReq accesses(hits+misses) (Count)
system.l2cache.ReadSharedReq.accesses::cpu.data       375049                       # number of ReadSharedReq accesses(hits+misses) (Count)
system.l2cache.ReadSharedReq.accesses::total       376768                       # number of ReadSharedReq accesses(hits+misses) (Count)
system.l2cache.ReadSharedReq.missRate::cpu.inst     0.969168                       # miss rate for ReadSharedReq accesses (Ratio)
system.l2cache.ReadSharedReq.missRate::cpu.data     0.998749                       # miss rate for ReadSharedReq accesses (Ratio)
system.l2cache.ReadSharedReq.missRate::total     0.998615                       # miss rate for ReadSharedReq accesses (Ratio)
system.l2cache.ReadSharedReq.avgMissLatency::cpu.inst 99341.536615                       # average ReadSharedReq miss latency ((Tick/Count))
system.l2cache.ReadSharedReq.avgMissLatency::cpu.data 95484.230338                       # average ReadSharedReq miss latency ((Tick/Count))
system.l2cache.ReadSharedReq.avgMissLatency::total 95501.310313                       # average ReadSharedReq miss latency ((Tick/Count))
system.l2cache.ReadSharedReq.mshrMisses::cpu.inst         1666                       # number of ReadSharedReq MSHR misses (Count)
system.l2cache.ReadSharedReq.mshrMisses::cpu.data       374580                       # number of ReadSharedReq MSHR misses (Count)
system.l2cache.ReadSharedReq.mshrMisses::total       376246                       # number of ReadSharedReq MSHR misses (Count)
system.l2cache.ReadSharedReq.mshrMissLatency::cpu.inst    132183000                       # number of ReadSharedReq MSHR miss ticks (Tick)
system.l2cache.ReadSharedReq.mshrMissLatency::cpu.data  28274883000                       # number of ReadSharedReq MSHR miss ticks (Tick)
system.l2cache.ReadSharedReq.mshrMissLatency::total  28407066000                       # number of ReadSharedReq MSHR miss ticks (Tick)
system.l2cache.ReadSharedReq.mshrMissRate::cpu.inst     0.969168                       # mshr miss rate for ReadSharedReq accesses (Ratio)
system.l2cache.ReadSharedReq.mshrMissRate::cpu.data     0.998749                       # mshr miss rate for ReadSharedReq accesses (Ratio)
system.l2cache.ReadSharedReq.mshrMissRate::total     0.998615                       # mshr miss rate for ReadSharedReq accesses (Ratio)
system.l2cache.ReadSharedReq.avgMshrMissLatency::cpu.inst 79341.536615                       # average ReadSharedReq mshr miss latency ((Tick/Count))
system.l2cache.ReadSharedReq.avgMshrMissLatency::cpu.data 75484.230338                       # average ReadSharedReq mshr miss latency ((Tick/Count))
system.l2cache.ReadSharedReq.avgMshrMissLatency::total 75501.310313                       # average ReadSharedReq mshr miss latency ((Tick/Count))
system.l2cache.WritebackDirty.hits::writebacks        40762                       # number of WritebackDirty hits (Count)
system.l2cache.WritebackDirty.hits::total        40762                       # number of WritebackDirty hits (Count)
system.l2cache.WritebackDirty.accesses::writebacks        40762                       # number of WritebackDirty accesses(hits+misses) (Count)
system.l2cache.WritebackDirty.accesses::total        40762                       # number of WritebackDirty accesses(hits+misses) (Count)
system.l2cache.power_state.pwrStateResidencyTicks::UNDEFINED 142402515000                       # Cumulative time (in ticks) in various power states (Tick)
system.l2cache.tags.tagsInUse             1023.196765                       # Average ticks per tags in use ((Tick/Count))
system.l2cache.tags.totalRefs                  609640                       # Total number of references to valid blocks. (Count)
system.l2cache.tags.sampledRefs                418000                       # Sample count of references to valid blocks. (Count)
system.l2cache.tags.avgRefs                  1.458469                       # Average number of references to valid blocks. ((Count/Count))
system.l2cache.tags.warmupTick                  86000                       # The tick when the warmup percentage was hit. (Tick)
system.l2cache.tags.occupancies::writebacks   222.759330                       # Average occupied blocks per tick, per requestor ((Count/Tick))
system.l2cache.tags.occupancies::cpu.inst    11.222017                       # Average occupied blocks per tick, per requestor ((Count/Tick))
system.l2cache.tags.occupancies::cpu.data   789.215417                       # Average occupied blocks per tick, per requestor ((Count/Tick))
system.l2cache.tags.avgOccs::writebacks      0.217538                       # Average percentage of cache occupancy ((Ratio/Tick))
system.l2cache.tags.avgOccs::cpu.inst        0.010959                       # Average percentage of cache occupancy ((Ratio/Tick))
system.l2cache.tags.avgOccs::cpu.data        0.770718                       # Average percentage of cache occupancy ((Ratio/Tick))
system.l2cache.tags.avgOccs::total           0.999216                       # Average percentage of cache occupancy ((Ratio/Tick))
system.l2cache.tags.occupanciesTaskId::1024         1024                       # Occupied blocks per task id (Count)
system.l2cache.tags.ageTaskId_1024::0              75                       # Occupied blocks per task id, per block age (Count)
system.l2cache.tags.ageTaskId_1024::1             215                       # Occupied blocks per task id, per block age (Count)
system.l2cache.tags.ageTaskId_1024::2             249                       # Occupied blocks per task id, per block age (Count)
system.l2cache.tags.ageTaskId_1024::3             485                       # Occupied blocks per task id, per block age (Count)
system.l2cache.tags.ratioOccsTaskId::1024            1                       # Ratio of occupied blocks and all blocks, per task id (Ratio)
system.l2cache.tags.tagAccesses               1957088                       # Number of tag accesses (Count)
system.l2cache.tags.dataAccesses              1957088                       # Number of data accesses (Count)
system.l2cache.tags.power_state.pwrStateResidencyTicks::UNDEFINED 142402515000                       # Cumulative time (in ticks) in various power states (Tick)
system.mem_ctrl.avgPriority_writebacks::samples     40444.00                       # Average QoS priority value for accepted requests (Count)
system.mem_ctrl.avgPriority_cpu.inst::samples      1666.00                       # Average QoS priority value for accepted requests (Count)
system.mem_ctrl.avgPriority_cpu.data::samples    379119.00                       # Average QoS priority value for accepted requests (Count)
system.mem_ctrl.priorityMinLatency       0.000000018750                       # per QoS priority minimum request to response latency (Second)
system.mem_ctrl.priorityMaxLatency       0.009809770500                       # per QoS priority maximum request to response latency (Second)
system.mem_ctrl.numReadWriteTurnArounds          2250                       # Number of turnarounds from READ to WRITE (Count)
system.mem_ctrl.numWriteReadTurnArounds          2250                       # Number of turnarounds from WRITE to READ (Count)
system.mem_ctrl.numStayReadState               838330                       # Number of times bus staying in READ state (Count)
system.mem_ctrl.numStayWriteState               38205                       # Number of times bus staying in WRITE state (Count)
system.mem_ctrl.readReqs                       384683                       # Number of read requests accepted (Count)
system.mem_ctrl.writeReqs                       40451                       # Number of write requests accepted (Count)
system.mem_ctrl.readBursts                     384683                       # Number of controller read bursts, including those serviced by the write queue (Count)
system.mem_ctrl.writeBursts                     40451                       # Number of controller write bursts, including those merged in the write queue (Count)
system.mem_ctrl.servicedByWrQ                    3898                       # Number of controller read bursts serviced by the write queue (Count)
system.mem_ctrl.mergedWrBursts                      7                       # Number of controller write bursts merged with an existing one (Count)
system.mem_ctrl.neitherReadNorWriteReqs             0                       # Number of requests that are neither read nor write (Count)
system.mem_ctrl.avgRdQLen                        1.00                       # Average read queue length when enqueuing ((Count/Tick))
system.mem_ctrl.avgWrQLen                       24.05                       # Average write queue length when enqueuing ((Count/Tick))
system.mem_ctrl.numRdRetry                          0                       # Number of times read queue was full causing retry (Count)
system.mem_ctrl.numWrRetry                          0                       # Number of times write queue was full causing retry (Count)
system.mem_ctrl.readPktSize::0                      0                       # Read request sizes (log2) (Count)
system.mem_ctrl.readPktSize::1                      0                       # Read request sizes (log2) (Count)
system.mem_ctrl.readPktSize::2                      0                       # Read request sizes (log2) (Count)
system.mem_ctrl.readPktSize::3                      0                       # Read request sizes (log2) (Count)
system.mem_ctrl.readPktSize::4                      0                       # Read request sizes (log2) (Count)
system.mem_ctrl.readPktSize::5                      0                       # Read request sizes (log2) (Count)
system.mem_ctrl.readPktSize::6                 384683                       # Read request sizes (log2) (Count)
system.mem_ctrl.writePktSize::0                     0                       # Write request sizes (log2) (Count)
system.mem_ctrl.writePktSize::1                     0                       # Write request sizes (log2) (Count)
system.mem_ctrl.writePktSize::2                     0                       # Write request sizes (log2) (Count)
system.mem_ctrl.writePktSize::3                     0                       # Write request sizes (log2) (Count)
system.mem_ctrl.writePktSize::4                     0                       # Write request sizes (log2) (Count)
system.mem_ctrl.writePktSize::5                     0                       # Write request sizes (log2) (Count)
system.mem_ctrl.writePktSize::6                 40451                       # Write request sizes (log2) (Count)
system.mem_ctrl.rdQLenPdf::0                   380783                       # What read queue length does an incoming req see (Count)
system.mem_ctrl.rdQLenPdf::1                        2                       # What read queue length does an incoming req see (Count)
system.mem_ctrl.rdQLenPdf::2                        0                       # What read queue length does an incoming req see (Count)
system.mem_ctrl.rdQLenPdf::3                        0                       # What read queue length does an incoming req see (Count)
system.mem_ctrl.rdQLenPdf::4                        0                       # What read queue length does an incoming req see (Count)
system.mem_ctrl.rdQLenPdf::5                        0                       # What read queue length does an incoming req see (Count)
system.mem_ctrl.rdQLenPdf::6                        0                       # What read queue length does an incoming req see (Count)
system.mem_ctrl.rdQLenPdf::7                        0                       # What read queue length does an incoming req see (Count)
system.mem_ctrl.rdQLenPdf::8                        0                       # What read queue length does an incoming req see (Count)
system.mem_ctrl.rdQLenPdf::9                        0                       # What read queue length does an incoming req see (Count)
system.mem_ctrl.rdQLenPdf::10                       0                       # What read queue length does an incoming req see (Count)
system.mem_ctrl.rdQLenPdf::11                       0                       # What read queue length does an incoming req see (Count)
system.mem_ctrl.rdQLenPdf::12                       0                       # What read queue length does an incoming req see (Count)
system.mem_ctrl.rdQLenPdf::13                       0                       # What read queue length does an incoming req see (Count)
system.mem_ctrl.rdQLenPdf::14                       0                       # What read queue length does an incoming req see (Count)
system.mem_ctrl.rdQLenPdf::15                       0                       # What read queue length does an incoming req see (Count)
system.mem_ctrl.rdQLenPdf::16                       0                       # What read queue length does an incoming req see (Count)
system.mem_ctrl.rdQLenPdf::17                       0                       # What read queue length does an incoming req see (Count)
system.mem_ctrl.rdQLenPdf::18                       0                       # What read queue length does an incoming req see (Count)
system.mem_ctrl.rdQLenPdf::19                       0                       # What read queue length does an incoming req see (Count)
system.mem_ctrl.rdQLenPdf::20                       0                       # What read queue length does an incoming req see (Count)
system.mem_ctrl.rdQLenPdf::21                       0                       # What read queue length does an incoming req see (Count)
system.mem_ctrl.rdQLenPdf::22                       0                       # What read queue length does an incoming req see (Count)
system.mem_ctrl.rdQLenPdf::23                       0                       # What read queue length does an incoming req see (Count)
system.mem_ctrl.rdQLenPdf::24                       0                       # What read queue length does an incoming req see (Count)
system.mem_ctrl.rdQLenPdf::25                       0                       # What read queue length does an incoming req see (Count)
system.mem_ctrl.rdQLenPdf::26                       0                       # What read queue length does an incoming req see (Count)
system.mem_ctrl.rdQLenPdf::27                       0                       # What read queue length does an incoming req see (Count)
system.mem_ctrl.rdQLenPdf::28                       0                       # What read queue length does an incoming req see (Count)
system.mem_ctrl.rdQLenPdf::29                       0                       # What read queue length does an incoming req see (Count)
system.mem_ctrl.rdQLenPdf::30                       0                       # What read queue length does an incoming req see (Count)
system.mem_ctrl.rdQLenPdf::31                       0                       # What read queue length does an incoming req see (Count)
system.mem_ctrl.wrQLenPdf::0                        1                       # What write queue length does an incoming req see (Count)
system.mem_ctrl.wrQLenPdf::1                        1                       # What write queue length does an incoming req see (Count)
system.mem_ctrl.wrQLenPdf::2                        1                       # What write queue length does an incoming req see (Count)
system.mem_ctrl.wrQLenPdf::3                        1                       # What write queue length does an incoming req see (Count)
system.mem_ctrl.wrQLenPdf::4                        1                       # What write queue length does an incoming req see (Count)
system.mem_ctrl.wrQLenPdf::5                        1                       # What write queue length does an incoming req see (Count)
system.mem_ctrl.wrQLenPdf::6                        1                       # What write queue length does an incoming req see (Count)
system.mem_ctrl.wrQLenPdf::7                        1                       # What write queue length does an incoming req see (Count)
system.mem_ctrl.wrQLenPdf::8                        1                       # What write queue length does an incoming req see (Count)
system.mem_ctrl.wrQLenPdf::9                        1                       # What write queue length does an incoming req see (Count)
system.mem_ctrl.wrQLenPdf::10                       1                       # What write queue length does an incoming req see (Count)
system.mem_ctrl.wrQLenPdf::11                       1                       # What write queue length does an incoming req see (Count)
system.mem_ctrl.wrQLenPdf::12                       1                       # What write queue length does an incoming req see (Count)
system.mem_ctrl.wrQLenPdf::13                       1                       # What write queue length does an incoming req see (Count)
system.mem_ctrl.wrQLenPdf::14                       1                       # What write queue length does an incoming req see (Count)
system.mem_ctrl.wrQLenPdf::15                    2181                       # What write queue length does an incoming req see (Count)
system.mem_ctrl.wrQLenPdf::16                    2189                       # What write queue length does an incoming req see (Count)
system.mem_ctrl.wrQLenPdf::17                    2238                       # What write queue length does an incoming req see (Count)
[...]
system.mem_ctrl.dram.bytesWritten::total      2588864                       # Number of bytes written to this memory (Byte)
system.mem_ctrl.dram.numReads::cpu.inst          1666                       # Number of read requests responded to by this memory (Count)
system.mem_ctrl.dram.numReads::cpu.data        383017                       # Number of read requests responded to by this memory (Count)
system.mem_ctrl.dram.numReads::total           384683                       # Number of read requests responded to by this memory (Count)
system.mem_ctrl.dram.numWrites::writebacks        40451                       # Number of write requests responded to by this memory (Count)
system.mem_ctrl.dram.numWrites::total           40451                       # Number of write requests responded to by this memory (Count)
system.mem_ctrl.dram.bwRead::cpu.inst          748751                       # Total read bandwidth from this memory ((Byte/Second))
system.mem_ctrl.dram.bwRead::cpu.data       172139432                       # Total read bandwidth from this memory ((Byte/Second))
system.mem_ctrl.dram.bwRead::total          172888182                       # Total read bandwidth from this memory ((Byte/Second))
system.mem_ctrl.dram.bwInstRead::cpu.inst       748751                       # Instruction read bandwidth from this memory ((Byte/Second))
system.mem_ctrl.dram.bwInstRead::total         748751                       # Instruction read bandwidth from this memory ((Byte/Second))
system.mem_ctrl.dram.bwWrite::writebacks     18179904                       # Write bandwidth from this memory ((Byte/Second))
system.mem_ctrl.dram.bwWrite::total          18179904                       # Write bandwidth from this memory ((Byte/Second))
system.mem_ctrl.dram.bwTotal::writebacks     18179904                       # Total bandwidth to/from this memory ((Byte/Second))
system.mem_ctrl.dram.bwTotal::cpu.inst         748751                       # Total bandwidth to/from this memory ((Byte/Second))
system.mem_ctrl.dram.bwTotal::cpu.data      172139432                       # Total bandwidth to/from this memory ((Byte/Second))
system.mem_ctrl.dram.bwTotal::total         191068086                       # Total bandwidth to/from this memory ((Byte/Second))
system.mem_ctrl.dram.readBursts                380785                       # Number of DRAM read bursts (Count)
system.mem_ctrl.dram.writeBursts                40425                       # Number of DRAM write bursts (Count)
system.mem_ctrl.dram.perBankRdBursts::0         23120                       # Per bank write bursts (Count)
system.mem_ctrl.dram.perBankRdBursts::1         23563                       # Per bank write bursts (Count)
system.mem_ctrl.dram.perBankRdBursts::2         25018                       # Per bank write bursts (Count)
system.mem_ctrl.dram.perBankRdBursts::3         24518                       # Per bank write bursts (Count)
system.mem_ctrl.dram.perBankRdBursts::4         23689                       # Per bank write bursts (Count)
system.mem_ctrl.dram.perBankRdBursts::5         23100                       # Per bank write bursts (Count)
system.mem_ctrl.dram.perBankRdBursts::6         23713                       # Per bank write bursts (Count)
system.mem_ctrl.dram.perBankRdBursts::7         22999                       # Per bank write bursts (Count)
system.mem_ctrl.dram.perBankRdBursts::8         23031                       # Per bank write bursts (Count)
system.mem_ctrl.dram.perBankRdBursts::9         23263                       # Per bank write bursts (Count)
system.mem_ctrl.dram.perBankRdBursts::10        22952                       # Per bank write bursts (Count)
system.mem_ctrl.dram.perBankRdBursts::11        24092                       # Per bank write bursts (Count)
system.mem_ctrl.dram.perBankRdBursts::12        25506                       # Per bank write bursts (Count)
system.mem_ctrl.dram.perBankRdBursts::13        25648                       # Per bank write bursts (Count)
system.mem_ctrl.dram.perBankRdBursts::14        23347                       # Per bank write bursts (Count)
system.mem_ctrl.dram.perBankRdBursts::15        23226                       # Per bank write bursts (Count)
system.mem_ctrl.dram.perBankWrBursts::0          2396                       # Per bank write bursts (Count)
system.mem_ctrl.dram.perBankWrBursts::1          2440                       # Per bank write bursts (Count)
system.mem_ctrl.dram.perBankWrBursts::2          2805                       # Per bank write bursts (Count)
system.mem_ctrl.dram.perBankWrBursts::3          2571                       # Per bank write bursts (Count)
system.mem_ctrl.dram.perBankWrBursts::4          2397                       # Per bank write bursts (Count)
system.mem_ctrl.dram.perBankWrBursts::5          2368                       # Per bank write bursts (Count)
system.mem_ctrl.dram.perBankWrBursts::6          2428                       # Per bank write bursts (Count)
system.mem_ctrl.dram.perBankWrBursts::7          2399                       # Per bank write bursts (Count)
system.mem_ctrl.dram.perBankWrBursts::8          2372                       # Per bank write bursts (Count)
system.mem_ctrl.dram.perBankWrBursts::9          2502                       # Per bank write bursts (Count)
system.mem_ctrl.dram.perBankWrBursts::10         2403                       # Per bank write bursts (Count)
system.mem_ctrl.dram.perBankWrBursts::11         2772                       # Per bank write bursts (Count)
system.mem_ctrl.dram.perBankWrBursts::12         3097                       # Per bank write bursts (Count)
system.mem_ctrl.dram.perBankWrBursts::13         2724                       # Per bank write bursts (Count)
system.mem_ctrl.dram.perBankWrBursts::14         2374                       # Per bank write bursts (Count)
system.mem_ctrl.dram.perBankWrBursts::15         2377                       # Per bank write bursts (Count)
system.mem_ctrl.dram.totQLat               2250765250                       # Total ticks spent queuing (Tick)
system.mem_ctrl.dram.totBusLat             1903925000                       # Total ticks spent in databus transfers (Tick)
system.mem_ctrl.dram.totMemAccLat          9390484000                       # Total ticks spent from burst creation until serviced by the DRAM (Tick)
system.mem_ctrl.dram.avgQLat                  5910.86                       # Average queueing delay per DRAM burst ((Tick/Count))
system.mem_ctrl.dram.avgBusLat                5000.00                       # Average bus latency per DRAM burst ((Tick/Count))
system.mem_ctrl.dram.avgMemAccLat            24660.86                       # Average memory access latency per DRAM burst ((Tick/Count))
system.mem_ctrl.dram.readRowHits               335530                       # Number of row buffer hits during reads (Count)
system.mem_ctrl.dram.writeRowHits               34953                       # Number of row buffer hits during writes (Count)
system.mem_ctrl.dram.readRowHitRate             88.12                       # Row buffer hit rate for reads (Ratio)
system.mem_ctrl.dram.writeRowHitRate            86.46                       # Row buffer hit rate for writes (Ratio)
system.mem_ctrl.dram.bytesPerActivate::samples        50715                       # Bytes accessed per row activation (Byte)
system.mem_ctrl.dram.bytesPerActivate::mean   531.500976                       # Bytes accessed per row activation (Byte)
system.mem_ctrl.dram.bytesPerActivate::gmean   368.748945                       # Bytes accessed per row activation (Byte)
system.mem_ctrl.dram.bytesPerActivate::stdev   362.120584                       # Bytes accessed per row activation (Byte)
system.mem_ctrl.dram.bytesPerActivate::0-127         8062     15.90%     15.90% # Bytes accessed per row activation (Byte)
system.mem_ctrl.dram.bytesPerActivate::128-255         6807     13.42%     29.32% # Bytes accessed per row activation (Byte)
system.mem_ctrl.dram.bytesPerActivate::256-383         3540      6.98%     36.30% # Bytes accessed per row activation (Byte)
system.mem_ctrl.dram.bytesPerActivate::384-511         7420     14.63%     50.93% # Bytes accessed per row activation (Byte)
system.mem_ctrl.dram.bytesPerActivate::512-639         6117     12.06%     62.99% # Bytes accessed per row activation (Byte)
system.mem_ctrl.dram.bytesPerActivate::640-767         2134      4.21%     67.20% # Bytes accessed per row activation (Byte)
system.mem_ctrl.dram.bytesPerActivate::768-895         1931      3.81%     71.01% # Bytes accessed per row activation (Byte)
system.mem_ctrl.dram.bytesPerActivate::896-1023         1912      3.77%     74.78% # Bytes accessed per row activation (Byte)
system.mem_ctrl.dram.bytesPerActivate::1024-1151        12792     25.22%    100.00% # Bytes accessed per row activation (Byte)
system.mem_ctrl.dram.bytesPerActivate::total        50715                       # Bytes accessed per row activation (Byte)
system.mem_ctrl.dram.dramBytesRead           24370240                       # Total bytes read (Byte)
system.mem_ctrl.dram.dramBytesWritten         2587200                       # Total bytes written (Byte)
system.mem_ctrl.dram.avgRdBW               171.136303                       # Average DRAM read bandwidth in MiBytes/s ((Byte/Second))
system.mem_ctrl.dram.avgWrBW                18.168218                       # Average DRAM write bandwidth in MiBytes/s ((Byte/Second))
system.mem_ctrl.dram.peakBW                  12800.00                       # Theoretical peak bandwidth in MiByte/s ((Byte/Second))
system.mem_ctrl.dram.busUtil                     1.48                       # Data bus utilization in percentage (Ratio)
system.mem_ctrl.dram.busUtilRead                 1.34                       # Data bus utilization in percentage for reads (Ratio)
system.mem_ctrl.dram.busUtilWrite                0.14                       # Data bus utilization in percentage for writes (Ratio)
system.mem_ctrl.dram.pageHitRate                87.96                       # Row buffer hit rate, read and write combined (Ratio)
system.mem_ctrl.dram.power_state.pwrStateResidencyTicks::UNDEFINED 142402515000                       # Cumulative time (in ticks) in various power states (Tick)
system.mem_ctrl.dram.rank0.actEnergy        187632060                       # Energy for activate commands per rank (pJ) (Joule)
system.mem_ctrl.dram.rank0.preEnergy         99706035                       # Energy for precharge commands per rank (pJ) (Joule)
system.mem_ctrl.dram.rank0.readEnergy      1354600800                       # Energy for read commands per rank (pJ) (Joule)
system.mem_ctrl.dram.rank0.writeEnergy      103376880                       # Energy for write commands per rank (pJ) (Joule)
system.mem_ctrl.dram.rank0.refreshEnergy 11240536320.000002                       # Energy for refresh commands per rank (pJ) (Joule)
system.mem_ctrl.dram.rank0.actBackEnergy  38588297760                       # Energy for active background per rank (pJ) (Joule)
system.mem_ctrl.dram.rank0.preBackEnergy  22187157120                       # Energy for precharge background per rank (pJ) (Joule)
system.mem_ctrl.dram.rank0.actPowerDownEnergy            0                       # Energy for active power-down per rank (pJ) (Joule)
system.mem_ctrl.dram.rank0.prePowerDownEnergy            0                       # Energy for precharge power-down per rank (pJ) (Joule)
system.mem_ctrl.dram.rank0.selfRefreshEnergy            0                       # Energy for self refresh per rank (pJ) (Joule)
system.mem_ctrl.dram.rank0.totalEnergy    73761306975                       # Total energy per rank (pJ) (Joule)
system.mem_ctrl.dram.rank0.averagePower    517.977558                       # Core power per rank (mW) (Watt)
system.mem_ctrl.dram.rank0.totalIdleTime            0                       # Total Idle time Per DRAM Rank (Tick)
system.mem_ctrl.dram.rank0.pwrStateTime::IDLE  57325922750                       # Time in different power states (Tick)
system.mem_ctrl.dram.rank0.pwrStateTime::REF   4754880000                       # Time in different power states (Tick)
system.mem_ctrl.dram.rank0.pwrStateTime::SREF            0                       # Time in different power states (Tick)
system.mem_ctrl.dram.rank0.pwrStateTime::PRE_PDN            0                       # Time in different power states (Tick)
system.mem_ctrl.dram.rank0.pwrStateTime::ACT  80321712250                       # Time in different power states (Tick)
system.mem_ctrl.dram.rank0.pwrStateTime::ACT_PDN            0                       # Time in different power states (Tick)
system.mem_ctrl.dram.rank1.actEnergy        174558720                       # Energy for activate commands per rank (pJ) (Joule)
system.mem_ctrl.dram.rank1.preEnergy         92757390                       # Energy for precharge commands per rank (pJ) (Joule)
system.mem_ctrl.dram.rank1.readEnergy      1364204100                       # Energy for read commands per rank (pJ) (Joule)
system.mem_ctrl.dram.rank1.writeEnergy      107641620                       # Energy for write commands per rank (pJ) (Joule)
system.mem_ctrl.dram.rank1.refreshEnergy 11240536320.000002                       # Energy for refresh commands per rank (pJ) (Joule)
system.mem_ctrl.dram.rank1.actBackEnergy  37019862390                       # Energy for active background per rank (pJ) (Joule)
system.mem_ctrl.dram.rank1.preBackEnergy  23507944800                       # Energy for precharge background per rank (pJ) (Joule)
system.mem_ctrl.dram.rank1.actPowerDownEnergy            0                       # Energy for active power-down per rank (pJ) (Joule)
system.mem_ctrl.dram.rank1.prePowerDownEnergy            0                       # Energy for precharge power-down per rank (pJ) (Joule)
system.mem_ctrl.dram.rank1.selfRefreshEnergy            0                       # Energy for self refresh per rank (pJ) (Joule)
system.mem_ctrl.dram.rank1.totalEnergy    73507505340                       # Total energy per rank (pJ) (Joule)
system.mem_ctrl.dram.rank1.averagePower    516.195275                       # Core power per rank (mW) (Watt)
system.mem_ctrl.dram.rank1.totalIdleTime            0                       # Total Idle time Per DRAM Rank (Tick)
system.mem_ctrl.dram.rank1.pwrStateTime::IDLE  60773857750                       # Time in different power states (Tick)
system.mem_ctrl.dram.rank1.pwrStateTime::REF   4754880000                       # Time in different power states (Tick)
system.mem_ctrl.dram.rank1.pwrStateTime::SREF            0                       # Time in different power states (Tick)
system.mem_ctrl.dram.rank1.pwrStateTime::PRE_PDN            0                       # Time in different power states (Tick)
system.mem_ctrl.dram.rank1.pwrStateTime::ACT  76873777250                       # Time in different power states (Tick)
system.mem_ctrl.dram.rank1.pwrStateTime::ACT_PDN            0                       # Time in different power states (Tick)
system.mem_ctrl.power_state.pwrStateResidencyTicks::UNDEFINED 142402515000                       # Cumulative time (in ticks) in various power states (Tick)
system.membus.transDist::ReadResp              376246                       # Transaction distribution (Count)
system.membus.transDist::WritebackDirty         40451                       # Transaction distribution (Count)
system.membus.transDist::CleanEvict            342738                       # Transaction distribution (Count)
system.membus.transDist::ReadExReq               8437                       # Transaction distribution (Count)
system.membus.transDist::ReadExResp              8437                       # Transaction distribution (Count)
system.membus.transDist::ReadSharedReq         376246                       # Transaction distribution (Count)
system.membus.pktCount_system.l2cache.mem_side_port::system.mem_ctrl.port      1152555                       # Packet count per connected requestor and responder (Count)
system.membus.pktCount_system.l2cache.mem_side_port::total      1152555                       # Packet count per connected requestor and responder (Count)
system.membus.pktCount::total                 1152555                       # Packet count per connected requestor and responder (Count)
system.membus.pktSize_system.l2cache.mem_side_port::system.mem_ctrl.port     27208576                       # Cumulative packet size per connected requestor and responder (Byte)
system.membus.pktSize_system.l2cache.mem_side_port::total     27208576                       # Cumulative packet size per connected requestor and responder (Byte)
system.membus.pktSize::total                 27208576                       # Cumulative packet size per connected requestor and responder (Byte)
system.membus.snoops                                0                       # Total snoops (Count)
system.membus.snoopTraffic                          0                       # Total snoop traffic (Byte)
system.membus.snoopFanout::samples             384683                       # Request fanout histogram (Count)
system.membus.snoopFanout::mean                     0                       # Request fanout histogram (Count)
system.membus.snoopFanout::stdev                    0                       # Request fanout histogram (Count)
system.membus.snoopFanout::underflows               0      0.00%      0.00% # Request fanout histogram (Count)
system.membus.snoopFanout::0                   384683    100.00%    100.00% # Request fanout histogram (Count)
system.membus.snoopFanout::1                        0      0.00%    100.00% # Request fanout histogram (Count)
system.membus.snoopFanout::overflows                0      0.00%    100.00% # Request fanout histogram (Count)
system.membus.snoopFanout::min_value                0                       # Request fanout histogram (Count)
system.membus.snoopFanout::max_value                0                       # Request fanout histogram (Count)
system.membus.snoopFanout::total               384683                       # Request fanout histogram (Count)
system.membus.power_state.pwrStateResidencyTicks::UNDEFINED 142402515000                       # Cumulative time (in ticks) in various power states (Tick)
system.membus.reqLayer2.occupancy           929676000                       # Layer occupancy (ticks) (Tick)
system.membus.reqLayer2.utilization               0.0                       # Layer utilization (Ratio)
system.membus.respLayer0.occupancy         2029367750                       # Layer occupancy (ticks) (Tick)
system.membus.respLayer0.utilization              0.0                       # Layer utilization (Ratio)
system.membus.snoop_filter.totRequests         767872                       # Total number of requests made to the snoop filter. (Count)
system.membus.snoop_filter.hitSingleRequests       383189                       # Number of requests hitting in the snoop filter with a single holder of the requested data. (Count)
system.membus.snoop_filter.hitMultiRequests            0                       # Number of requests hitting in the snoop filter with multiple (>1) holders of the requested data. (Count)
system.membus.snoop_filter.totSnoops                0                       # Total number of snoops made to the snoop filter. (Count)
system.membus.snoop_filter.hitSingleSnoops            0                       # Number of snoops hitting in the snoop filter with a single holder of the requested data. (Count)
system.membus.snoop_filter.hitMultiSnoops            0                       # Number of snoops hitting in the snoop filter with multiple (>1) holders of the requested data. (Count)
system.workload.inst.arm                            0                       # number of arm instructions executed (Count)
system.workload.inst.quiesce                        0                       # number of quiesce instructions executed (Count)

---------- End Simulation Statistics   ----------
