
---------- Begin Simulation Statistics ----------
simSeconds                                   0.030861                       # Number of seconds simulated (Second)
simTicks                                  30861415000                       # Number of ticks simulated (Tick)
finalTick                                 30861415000                       # Number of ticks from beginning of simulation (restored from checkpoints and never reset) (Tick)
simFreq                                  1000000000000                       # The number of ticks per simulated second ((Tick/Second))
hostSeconds                                     18.34                       # Real time elapsed on the host (Second)
hostTickRate                               1682673321                       # The number of ticks simulated per host second (ticks/s) ((Tick/Second))
hostMemory                                     697160                       # Number of bytes of host memory used (Byte)
simInsts                                      8038599                       # Number of instructions simulated (Count)
simOps                                       15430524                       # Number of ops (including micro ops) simulated (Count)
hostInstRate                                   438241                       # Simulator instruction rate (inst/s) ((Count/Second))
hostOpRate                                     841217                       # Simulator op (including micro ops) rate (op/s) ((Count/Second))
system.clk_domain.clock                          1000                       # Clock period in ticks (Tick)
system.clk_domain.voltage_domain.voltage            1                       # Voltage in Volts (Volt)
system.cpu.numCycles                         30861415                       # Number of cpu cycles simulated (Cycle)
system.cpu.cpi                               3.839112                       # CPI: cycles per instruction (core level) ((Cycle/Count))
system.cpu.ipc                               0.260477                       # IPC: instructions per cycle (core level) ((Count/Cycle))
system.cpu.numWorkItemsStarted                      0                       # Number of work items this cpu started (Count)
system.cpu.numWorkItemsCompleted                    0                       # Number of work items this cpu completed (Count)
system.cpu.commitStats0.numInsts              8038685                       # Number of instructions committed (thread level) (Count)
system.cpu.commitStats0.numOps               15430850                       # Number of ops (including micro ops) committed (thread level) (Count)
system.cpu.commitStats0.numInstsNotNOP              0                       # Number of instructions committed excluding NOPs or prefetches (Count)
system.cpu.commitStats0.numOpsNotNOP                0                       # Number of Ops (including micro ops) Simulated (Count)
system.cpu.commitStats0.cpi                  3.839112                       # CPI: cycles per instruction (thread level) ((Cycle/Count))
system.cpu.commitStats0.ipc                  0.260477                       # IPC: instructions per cycle (thread level) ((Count/Cycle))
system.cpu.commitStats0.numMemRefs                  0                       # Number of memory references committed (Count)
system.cpu.commitStats0.numFpInsts            1535429                       # Number of float instructions (Count)
system.cpu.commitStats0.numIntInsts          14201837                       # Number of integer instructions (Count)
system.cpu.commitStats0.numLoadInsts          2493799                       # Number of load instructions (Count)
system.cpu.commitStats0.numStoreInsts         1239702                       # Number of store instructions (Count)
system.cpu.commitStats0.numVecInsts                 0                       # Number of vector instructions (Count)
system.cpu.commitStats0.committedInstType::No_OpClass       408843      2.65%      2.65% # Class of committed instruction. (Count)
system.cpu.commitStats0.committedInstType::IntAlu     10263535     66.51%     69.16% # Class of committed instruction. (Count)
system.cpu.commitStats0.committedInstType::IntMult           25      0.00%     69.16% # Class of committed instruction. (Count)
system.cpu.commitStats0.committedInstType::IntDiv         1771      0.01%     69.17% # Class of committed instruction. (Count)
system.cpu.commitStats0.committedInstType::FloatAdd       305783      1.98%     71.16% # Class of committed instruction. (Count)
system.cpu.commitStats0.committedInstType::FloatCmp            0      0.00%     71.16% # Class of committed instruction. (Count)
system.cpu.commitStats0.committedInstType::FloatCvt           32      0.00%     71.16% # Class of committed instruction. (Count)
system.cpu.commitStats0.committedInstType::FloatMult            0      0.00%     71.16% # Class of committed instruction. (Count)
system.cpu.commitStats0.committedInstType::FloatMultAcc            0      0.00%     71.16% # Class of committed instruction. (Count)
system.cpu.commitStats0.committedInstType::FloatDiv            0      0.00%     71.16% # Class of committed instruction. (Count)
system.cpu.commitStats0.committedInstType::FloatMisc            0      0.00%     71.16% # Class of committed instruction. (Count)
system.cpu.commitStats0.committedInstType::FloatSqrt            0      0.00%     71.16% # Class of committed instruction. (Count)
system.cpu.commitStats0.committedInstType::SimdAdd          572      0.00%     71.16% # Class of committed instruction. (Count)
system.cpu.commitStats0.committedInstType::SimdAddAcc            0      0.00%     71.16% # Class of committed instruction. (Count)
system.cpu.commitStats0.committedInstType::SimdAlu       204808      1.33%     72.49% # Class of committed instruction. (Count)
system.cpu.commitStats0.committedInstType::SimdCmp            6      0.00%     72.49% # Class of committed instruction. (Count)
system.cpu.commitStats0.committedInstType::SimdCvt         1436      0.01%     72.50% # Class of committed instruction. (Count)
system.cpu.commitStats0.committedInstType::SimdMisc       306760      1.99%     74.48% # Class of committed instruction. (Count)
system.cpu.commitStats0.committedInstType::SimdMult            0      0.00%     74.48% # Class of committed instruction. (Count)
system.cpu.commitStats0.committedInstType::SimdMultAcc            0      0.00%     74.48% # Class of committed instruction. (Count)
system.cpu.commitStats0.committedInstType::SimdMatMultAcc            0      0.00%     74.48% # Class of committed instruction. (Count)
system.cpu.commitStats0.committedInstType::SimdShift          238      0.00%     74.49% # Class of committed instruction. (Count)
system.cpu.commitStats0.committedInstType::SimdShiftAcc            0      0.00%     74.49% # Class of committed instruction. (Count)
system.cpu.commitStats0.committedInstType::SimdDiv            0      0.00%     74.49% # Class of committed instruction. (Count)
system.cpu.commitStats0.committedInstType::SimdSqrt            0      0.00%     74.49% # Class of committed instruction. (Count)
system.cpu.commitStats0.committedInstType::SimdFloatAdd            0      0.00%     74.49% # Class of committed instruction. (Count)
system.cpu.commitStats0.committedInstType::SimdFloatAlu            0      0.00%     74.49% # Class of committed instruction. (Count)
system.cpu.commitStats0.committedInstType::SimdFloatCmp            0      0.00%     74.49% # Class of committed instruction. (Count)
system.cpu.commitStats0.committedInstType::SimdFloatCvt       101770      0.66%     75.15% # Class of committed instruction. (Count)
system.cpu.commitStats0.committedInstType::SimdFloatDiv       101770      0.66%     75.80% # Class of committed instruction. (Count)
system.cpu.commitStats0.committedInstType::SimdFloatMisc            0      0.00%     75.80% # Class of committed instruction. (Count)
system.cpu.commitStats0.committedInstType::SimdFloatMult            0      0.00%     75.80% # Class of committed instruction. (Count)
system.cpu.commitStats0.committedInstType::SimdFloatMultAcc            0      0.00%     75.80% # Class of committed instruction. (Count)
system.cpu.commitStats0.committedInstType::SimdFloatMatMultAcc            0      0.00%     75.80% # Class of committed instruction. (Count)
system.cpu.commitStats0.committedInstType::SimdFloatSqrt            0      0.00%     75.80% # Class of committed instruction. (Count)
system.cpu.commitStats0.committedInstType::SimdReduceAdd            0      0.00%     75.80% # Class of committed instruction. (Count)
system.cpu.commitStats0.committedInstType::SimdReduceAlu            0      0.00%     75.80% # Class of committed instruction. (Count)
system.cpu.commitStats0.committedInstType::SimdReduceCmp            0      0.00%     75.80% # Class of committed instruction. (Count)
system.cpu.commitStats0.committedInstType::SimdFloatReduceAdd            0      0.00%     75.80% # Class of committed instruction. (Count)
system.cpu.commitStats0.committedInstType::SimdFloatReduceCmp            0      0.00%     75.80% # Class of committed instruction. (Count)
system.cpu.commitStats0.committedInstType::SimdAes            0      0.00%     75.80% # Class of committed instruction. (Count)
system.cpu.commitStats0.committedInstType::SimdAesMix            0      0.00%     75.80% # Class of committed instruction. (Count)
system.cpu.commitStats0.committedInstType::SimdSha1Hash            0      0.00%     75.80% # Class of committed instruction. (Count)
system.cpu.commitStats0.committedInstType::SimdSha1Hash2            0      0.00%     75.80% # Class of committed instruction. (Count)
system.cpu.commitStats0.committedInstType::SimdSha256Hash            0      0.00%     75.80% # Class of committed instruction. (Count)
system.cpu.commitStats0.committedInstType::SimdSha256Hash2            0      0.00%     75.80% # Class of committed instruction. (Count)
system.cpu.commitStats0.committedInstType::SimdShaSigma2            0      0.00%     75.80% # Class of committed instruction. (Count)
system.cpu.commitStats0.committedInstType::SimdShaSigma3            0      0.00%     75.80% # Class of committed instruction. (Count)
system.cpu.commitStats0.committedInstType::SimdPredAlu            0      0.00%     75.80% # Class of committed instruction. (Count)
system.cpu.commitStats0.committedInstType::Matrix            0      0.00%     75.80% # Class of committed instruction. (Count)
system.cpu.commitStats0.committedInstType::MatrixMov            0      0.00%     75.80% # Class of committed instruction. (Count)
system.cpu.commitStats0.committedInstType::MatrixOP            0      0.00%     75.80% # Class of committed instruction. (Count)
system.cpu.commitStats0.committedInstType::MemRead      2390455     15.49%     91.30% # Class of committed instruction. (Count)
system.cpu.commitStats0.committedInstType::MemWrite       933000      6.05%     97.34% # Class of committed instruction. (Count)
system.cpu.commitStats0.committedInstType::FloatMemRead       103344      0.67%     98.01% # Class of committed instruction. (Count)
system.cpu.commitStats0.committedInstType::FloatMemWrite       306702      1.99%    100.00% # Class of committed instruction. (Count)
system.cpu.commitStats0.committedInstType::IprAccess            0      0.00%    100.00% # Class of committed instruction. (Count)
system.cpu.commitStats0.committedInstType::InstPrefetch            0      0.00%    100.00% # Class of committed instruction. (Count)
system.cpu.commitStats0.committedInstType::SimdUnitStrideLoad            0      0.00%    100.00% # Class of committed instruction. (Count)
system.cpu.commitStats0.committedInstType::SimdUnitStrideStore            0      0.00%    100.00% # Class of committed instruction. (Count)
system.cpu.commitStats0.committedInstType::SimdUnitStrideMaskLoad            0      0.00%    100.00% # Class of committed instruction. (Count)
system.cpu.commitStats0.committedInstType::SimdUnitStrideMaskStore            0      0.00%    100.00% # Class of committed instruction. (Count)
system.cpu.commitStats0.committedInstType::SimdStridedLoad            0      0.00%    100.00% # Class of committed instruction. (Count)
system.cpu.commitStats0.committedInstType::SimdStridedStore            0      0.00%    100.00% # Class of committed instruction. (Count)
system.cpu.commitStats0.committedInstType::SimdIndexedLoad            0      0.00%    100.00% # Class of committed instruction. (Count)
system.cpu.commitStats0.committedInstType::SimdIndexedStore            0      0.00%    100.00% # Class of committed instruction. (Count)
system.cpu.commitStats0.committedInstType::SimdWholeRegisterLoad            0      0.00%    100.00% # Class of committed instruction. (Count)
system.cpu.commitStats0.committedInstType::SimdWholeRegisterStore            0      0.00%    100.00% # Class of committed instruction. (Count)
system.cpu.commitStats0.committedInstType::SimdUnitStrideFaultOnlyFirstLoad            0      0.00%    100.00% # Class of committed instruction. (Count)
system.cpu.commitStats0.committedInstType::SimdUnitStrideSegmentedLoad            0      0.00%    100.00% # Class of committed instruction. (Count)
system.cpu.commitStats0.committedInstType::SimdUnitStrideSegmentedStore            0      0.00%    100.00% # Class of committed instruction. (Count)
system.cpu.commitStats0.committedInstType::SimdExt            0      0.00%    100.00% # Class of committed instruction. (Count)
system.cpu.commitStats0.committedInstType::SimdFloatExt            0      0.00%    100.00% # Class of committed instruction. (Count)
system.cpu.commitStats0.committedInstType::SimdConfig            0      0.00%    100.00% # Class of committed instruction. (Count)
system.cpu.commitStats0.committedInstType::total     15430850                       # Class of committed instruction. (Count)
system.cpu.commitStats0.committedControl::IsControl      1767678                       # Class of control type instructions committed (Count)
system.cpu.commitStats0.committedControl::IsDirectControl      1358823                       # Class of control type instructions committed (Count)
system.cpu.commitStats0.committedControl::IsIndirectControl       408827                       # Class of control type instructions committed (Count)
system.cpu.commitStats0.committedControl::IsCondControl       952055                       # Class of control type instructions committed (Count)
system.cpu.commitStats0.committedControl::IsUncondControl       815595                       # Class of control type instructions committed (Count)
system.cpu.commitStats0.committedControl::IsCall       306502                       # Class of control type instructions committed (Count)
system.cpu.commitStats0.committedControl::IsReturn       306496                       # Class of control type instructions committed (Count)
system.cpu.dcache.demandHits::cpu.data        3716957                       # number of demand (read+write) hits (Count)
system.cpu.dcache.demandHits::total           3716957                       # number of demand (read+write) hits (Count)
system.cpu.dcache.overallHits::cpu.data       3716957                       # number of overall hits (Count)
system.cpu.dcache.overallHits::total          3716957                       # number of overall hits (Count)
system.cpu.dcache.demandMisses::cpu.data        16296                       # number of demand (read+write) misses (Count)
system.cpu.dcache.demandMisses::total           16296                       # number of demand (read+write) misses (Count)
system.cpu.dcache.overallMisses::cpu.data        16296                       # number of overall misses (Count)
system.cpu.dcache.overallMisses::total          16296                       # number of overall misses (Count)
system.cpu.dcache.demandMissLatency::cpu.data   1803029000                       # number of demand (read+write) miss ticks (Tick)
system.cpu.dcache.demandMissLatency::total   1803029000                       # number of demand (read+write) miss ticks (Tick)
system.cpu.dcache.overallMissLatency::cpu.data   1803029000                       # number of overall miss ticks (Tick)
system.cpu.dcache.overallMissLatency::total   1803029000                       # number of overall miss ticks (Tick)
system.cpu.dcache.demandAccesses::cpu.data      3733253                       # number of demand (read+write) accesses (Count)
system.cpu.dcache.demandAccesses::total       3733253                       # number of demand (read+write) accesses (Count)
system.cpu.dcache.overallAccesses::cpu.data      3733253                       # number of overall (read+write) accesses (Count)
system.cpu.dcache.overallAccesses::total      3733253                       # number of overall (read+write) accesses (Count)
system.cpu.dcache.demandMissRate::cpu.data     0.004365                       # miss rate for demand accesses (Ratio)
system.cpu.dcache.demandMissRate::total      0.004365                       # miss rate for demand accesses (Ratio)
system.cpu.dcache.overallMissRate::cpu.data     0.004365                       # miss rate for overall accesses (Ratio)
system.cpu.dcache.overallMissRate::total     0.004365                       # miss rate for overall accesses (Ratio)
system.cpu.dcache.demandAvgMissLatency::cpu.data 110642.427590                       # average overall miss latency in ticks ((Tick/Count))
system.cpu.dcache.demandAvgMissLatency::total 110642.427590                       # average overall miss latency in ticks ((Tick/Count))
system.cpu.dcache.overallAvgMissLatency::cpu.data 110642.427590                       # average overall miss latency ((Tick/Count))
system.cpu.dcache.overallAvgMissLatency::total 110642.427590                       # average overall miss latency ((Tick/Count))
system.cpu.dcache.blockedCycles::no_mshrs            0                       # number of cycles access was blocked (Cycle)
system.cpu.dcache.blockedCycles::no_targets            0                       # number of cycles access was blocked (Cycle)
system.cpu.dcache.blockedCauses::no_mshrs            0                       # number of times access was blocked (Count)
system.cpu.dcache.blockedCauses::no_targets            0                       # number of times access was blocked (Count)
system.cpu.dcache.avgBlocked::no_mshrs            nan                       # average number of cycles each access was blocked ((Cycle/Count))
system.cpu.dcache.avgBlocked::no_targets          nan                       # average number of cycles each access was blocked ((Cycle/Count))
system.cpu.dcache.writebacks::writebacks        12920                       # number of writebacks (Count)
system.cpu.dcache.writebacks::total             12920                       # number of writebacks (Count)
system.cpu.dcache.demandMshrMisses::cpu.data        16296                       # number of demand (read+write) MSHR misses (Count)
system.cpu.dcache.demandMshrMisses::total        16296                       # number of demand (read+write) MSHR misses (Count)
system.cpu.dcache.overallMshrMisses::cpu.data        16296                       # number of overall MSHR misses (Count)
system.cpu.dcache.overallMshrMisses::total        16296                       # number of overall MSHR misses (Count)
system.cpu.dcache.demandMshrMissLatency::cpu.data   1770437000                       # number of demand (read+write) MSHR miss ticks (Tick)
system.cpu.dcache.demandMshrMissLatency::total   1770437000                       # number of demand (read+write) MSHR miss ticks (Tick)
system.cpu.dcache.overallMshrMissLatency::cpu.data   1770437000                       # number of overall MSHR miss ticks (Tick)
system.cpu.dcache.overallMshrMissLatency::total   1770437000                       # number of overall MSHR miss ticks (Tick)
system.cpu.dcache.demandMshrMissRate::cpu.data     0.004365                       # mshr miss ratio for demand accesses (Ratio)
system.cpu.dcache.demandMshrMissRate::total     0.004365                       # mshr miss ratio for demand accesses (Ratio)
system.cpu.dcache.overallMshrMissRate::cpu.data     0.004365                       # mshr miss ratio for overall accesses (Ratio)
system.cpu.dcache.overallMshrMissRate::total     0.004365                       # mshr miss ratio for overall accesses (Ratio)
system.cpu.dcache.demandAvgMshrMissLatency::cpu.data 108642.427590                       # average overall mshr miss latency ((Tick/Count))
system.cpu.dcache.demandAvgMshrMissLatency::total 108642.427590                       # average overall mshr miss latency ((Tick/Count))
system.cpu.dcache.overallAvgMshrMissLatency::cpu.data 108642.427590                       # average overall mshr miss latency ((Tick/Count))
system.cpu.dcache.overallAvgMshrMissLatency::total 108642.427590                       # average overall mshr miss latency ((Tick/Count))
system.cpu.dcache.replacements                  15272                       # number of replacements (Count)
system.cpu.dcache.ReadReq.hits::cpu.data      2490674                       # number of ReadReq hits (Count)
system.cpu.dcache.ReadReq.hits::total         2490674                       # number of ReadReq hits (Count)
system.cpu.dcache.ReadReq.misses::cpu.data         2889                       # number of ReadReq misses (Count)
system.cpu.dcache.ReadReq.misses::total          2889                       # number of ReadReq misses (Count)
system.cpu.dcache.ReadReq.missLatency::cpu.data    277991000                       # number of ReadReq miss ticks (Tick)
system.cpu.dcache.ReadReq.missLatency::total    277991000                       # number of ReadReq miss ticks (Tick)
system.cpu.dcache.ReadReq.accesses::cpu.data      2493563                       # number of ReadReq accesses(hits+misses) (Count)
system.cpu.dcache.ReadReq.accesses::total      2493563                       # number of ReadReq accesses(hits+misses) (Count)
system.cpu.dcache.ReadReq.missRate::cpu.data     0.001159                       # miss rate for ReadReq accesses (Ratio)
system.cpu.dcache.ReadReq.missRate::total     0.001159                       # miss rate for ReadReq accesses (Ratio)
system.cpu.dcache.ReadReq.avgMissLatency::cpu.data 96223.952925                       # average ReadReq miss latency ((Tick/Count))
system.cpu.dcache.ReadReq.avgMissLatency::total 96223.952925                       # average ReadReq miss latency ((Tick/Count))
system.cpu.dcache.ReadReq.mshrMisses::cpu.data         2889                       # number of ReadReq MSHR misses (Count)
system.cpu.dcache.ReadReq.mshrMisses::total         2889                       # number of ReadReq MSHR misses (Count)
system.cpu.dcache.ReadReq.mshrMissLatency::cpu.data    272213000                       # number of ReadReq MSHR miss ticks (Tick)
system.cpu.dcache.ReadReq.mshrMissLatency::total    272213000                       # number of ReadReq MSHR miss ticks (Tick)
system.cpu.dcache.ReadReq.mshrMissRate::cpu.data     0.001159                       # mshr miss rate for ReadReq accesses (Ratio)
system.cpu.dcache.ReadReq.mshrMissRate::total     0.001159                       # mshr miss rate for ReadReq accesses (Ratio)
system.cpu.dcache.ReadReq.avgMshrMissLatency::cpu.data 94223.952925                       # average ReadReq mshr miss latency ((Tick/Count))
system.cpu.dcache.ReadReq.avgMshrMissLatency::total 94223.952925                       # average ReadReq mshr miss latency ((Tick/Count))
system.cpu.dcache.WriteReq.hits::cpu.data      1226283                       # number of WriteReq hits (Count)
system.cpu.dcache.WriteReq.hits::total        1226283                       # number of WriteReq hits (Count)
system.cpu.dcache.WriteReq.misses::cpu.data        13407                       # number of WriteReq misses (Count)
system.cpu.dcache.WriteReq.misses::total        13407                       # number of WriteReq misses (Count)
system.cpu.dcache.WriteReq.missLatency::cpu.data   1525038000                       # number of WriteReq miss ticks (Tick)
system.cpu.dcache.WriteReq.missLatency::total   1525038000                       # number of WriteReq miss ticks (Tick)
system.cpu.dcache.WriteReq.accesses::cpu.data      1239690                       # number of WriteReq accesses(hits+misses) (Count)
system.cpu.dcache.WriteReq.accesses::total      1239690                       # number of WriteReq accesses(hits+misses) (Count)
system.cpu.dcache.WriteReq.missRate::cpu.data     0.010815                       # miss rate for WriteReq accesses (Ratio)
system.cpu.dcache.WriteReq.missRate::total     0.010815                       # miss rate for WriteReq accesses (Ratio)
system.cpu.dcache.WriteReq.avgMissLatency::cpu.data 113749.384650                       # average WriteReq miss latency ((Tick/Count))
system.cpu.dcache.WriteReq.avgMissLatency::total 113749.384650                       # average WriteReq miss latency ((Tick/Count))
system.cpu.dcache.WriteReq.mshrMisses::cpu.data        13407                       # number of WriteReq MSHR misses (Count)
system.cpu.dcache.WriteReq.mshrMisses::total        13407                       # number of WriteReq MSHR misses (Count)
system.cpu.dcache.WriteReq.mshrMissLatency::cpu.data   1498224000                       # number of WriteReq MSHR miss ticks (Tick)
system.cpu.dcache.WriteReq.mshrMissLatency::total   1498224000                       # number of WriteReq MSHR miss ticks (Tick)
system.cpu.dcache.WriteReq.mshrMissRate::cpu.data     0.010815                       # mshr miss rate for WriteReq accesses (Ratio)
system.cpu.dcache.WriteReq.mshrMissRate::total     0.010815                       # mshr miss rate for WriteReq accesses (Ratio)
system.cpu.dcache.WriteReq.avgMshrMissLatency::cpu.data 111749.384650                       # average WriteReq mshr miss latency ((Tick/Count))
system.cpu.dcache.WriteReq.avgMshrMissLatency::total 111749.384650                       # average WriteReq mshr miss latency ((Tick/Count))
system.cpu.dcache.power_state.pwrStateResidencyTicks::UNDEFINED  30861415000                       # Cumulative time (in ticks) in various power states (Tick)
system.cpu.dcache.tags.tagsInUse          1016.973914                       # Average ticks per tags in use ((Tick/Count))
system.cpu.dcache.tags.totalRefs              3733253                       # Total number of references to valid blocks. (Count)
system.cpu.dcache.tags.sampledRefs              16296                       # Sample count of references to valid blocks. (Count)
system.cpu.dcache.tags.avgRefs             229.090145                       # Average number of references to valid blocks. ((Count/Count))
system.cpu.dcache.tags.warmupTick              218000                       # The tick when the warmup percentage was hit. (Tick)
system.cpu.dcache.tags.occupancies::cpu.data  1016.973914                       # Average occupied blocks per tick, per requestor ((Count/Tick))
system.cpu.dcache.tags.avgOccs::cpu.data     0.993139                       # Average percentage of cache occupancy ((Ratio/Tick))
system.cpu.dcache.tags.avgOccs::total        0.993139                       # Average percentage of cache occupancy ((Ratio/Tick))
system.cpu.dcache.tags.occupanciesTaskId::1024         1024                       # Occupied blocks per task id (Count)
system.cpu.dcache.tags.ageTaskId_1024::0           22                       # Occupied blocks per task id, per block age (Count)
system.cpu.dcache.tags.ageTaskId_1024::1          143                       # Occupied blocks per task id, per block age (Count)
system.cpu.dcache.tags.ageTaskId_1024::2          359                       # Occupied blocks per task id, per block age (Count)
system.cpu.dcache.tags.ageTaskId_1024::3          491                       # Occupied blocks per task id, per block age (Count)
system.cpu.dcache.tags.ageTaskId_1024::4            9                       # Occupied blocks per task id, per block age (Count)
system.cpu.dcache.tags.ratioOccsTaskId::1024            1                       # Ratio of occupied blocks and all blocks, per task id (Ratio)
system.cpu.dcache.tags.tagAccesses            7482802                       # Number of tag accesses (Count)
system.cpu.dcache.tags.dataAccesses           7482802                       # Number of data accesses (Count)
system.cpu.dcache.tags.power_state.pwrStateResidencyTicks::UNDEFINED  30861415000                       # Cumulative time (in ticks) in various power states (Tick)
system.cpu.exec_context.thread_0.numMatAluAccesses            0                       # Number of matrix alu accesses (Count)
system.cpu.exec_context.thread_0.numCallsReturns       612998                       # Number of times a function call or return occured (Count)
system.cpu.exec_context.thread_0.numMatInsts            0                       # Number of matrix instructions (Count)
system.cpu.exec_context.thread_0.numIdleCycles     0.001000                       # Number of idle cycles (Cycle)
system.cpu.exec_context.thread_0.numBusyCycles 30861414.999000                       # Number of busy cycles (Cycle)
system.cpu.exec_context.thread_0.notIdleFraction     1.000000                       # Percentage of non-idle cycles (Ratio)
system.cpu.exec_context.thread_0.idleFraction     0.000000                       # Percentage of idle cycles (Ratio)
system.cpu.executeStats0.numInsts                   0                       # Number of executed instructions (Count)
system.cpu.executeStats0.numNop                     0                       # Number of nop insts executed (Count)
system.cpu.executeStats0.numBranches                0                       # Number of branches executed (Count)
system.cpu.executeStats0.numLoadInsts               0                       # Number of load instructions executed (Count)
system.cpu.executeStats0.numStoreInsts        3733501                       # Number of stores executed (Count)
system.cpu.executeStats0.instRate                   0                       # Inst execution rate ((Count/Cycle))
system.cpu.executeStats0.numFpAluAccesses      1535429                       # Number of float alu accesses (Count)
system.cpu.executeStats0.numFpRegReads        1743222                       # Number of times the floating registers were read (Count)
system.cpu.executeStats0.numFpRegWrites       1227904                       # Number of times the floating registers were written (Count)
system.cpu.executeStats0.numIntAluAccesses     14201837                       # Number of integer alu accesses (Count)
system.cpu.executeStats0.numIntRegReads      15097249                       # Number of times the integer registers were read (Count)
system.cpu.executeStats0.numIntRegWrites      9839283                       # Number of times the integer registers were written (Count)
system.cpu.executeStats0.numMemRefs           3733501                       # Number of memory refs (Count)
system.cpu.executeStats0.numMiscRegReads      7369069                       # Number of times the Misc registers were read (Count)
system.cpu.executeStats0.numMiscRegWrites           18                       # Number of times the Misc registers were written (Count)
system.cpu.executeStats0.numVecAluAccesses            0                       # Number of vector alu accesses (Count)
system.cpu.executeStats0.numDiscardedOps            0                       # Number of ops (including micro ops) which were discarded before commit (Count)
system.cpu.fetchStats0.numInsts               8038685                       # Number of instructions fetched (thread level) (Count)
system.cpu.fetchStats0.numOps                15430850                       # Number of ops (including micro ops) fetched (thread level) (Count)
system.cpu.fetchStats0.fetchRate             0.260477                       # Number of inst fetches per cycle ((Count/Cycle))
system.cpu.fetchStats0.numBranches            1767678                       # Number of branches fetched (Count)
system.cpu.fetchStats0.branchRate            0.057278                       # Number of branch fetches per cycle (Ratio)
system.cpu.fetchStats0.numFetchSuspends             0                       # Number of times Execute suspended instruction fetching (Count)
system.cpu.icache.demandHits::cpu.inst       10750568                       # number of demand (read+write) hits (Count)
system.cpu.icache.demandHits::total          10750568                       # number of demand (read+write) hits (Count)
system.cpu.icache.overallHits::cpu.inst      10750568                       # number of overall hits (Count)
system.cpu.icache.overallHits::total         10750568                       # number of overall hits (Count)
system.cpu.icache.demandMisses::cpu.inst         1203                       # number of demand (read+write) misses (Count)
system.cpu.icache.demandMisses::total            1203                       # number of demand (read+write) misses (Count)
system.cpu.icache.overallMisses::cpu.inst         1203                       # number of overall misses (Count)
system.cpu.icache.overallMisses::total           1203                       # number of overall misses (Count)
system.cpu.icache.demandMissLatency::cpu.inst    123375000                       # number of demand (read+write) miss ticks (Tick)
system.cpu.icache.demandMissLatency::total    123375000                       # number of demand (read+write) miss ticks (Tick)
system.cpu.icache.overallMissLatency::cpu.inst    123375000                       # number of overall miss ticks (Tick)
system.cpu.icache.overallMissLatency::total    123375000                       # number of overall miss ticks (Tick)
system.cpu.icache.demandAccesses::cpu.inst     10751771                       # number of demand (read+write) accesses (Count)
system.cpu.icache.demandAccesses::total      10751771                       # number of demand (read+write) accesses (Count)
system.cpu.icache.overallAccesses::cpu.inst     10751771                       # number of overall (read+write) accesses (Count)
system.cpu.icache.overallAccesses::total     10751771                       # number of overall (read+write) accesses (Count)
system.cpu.icache.demandMissRate::cpu.inst     0.000112                       # miss rate for demand accesses (Ratio)
system.cpu.icache.demandMissRate::total      0.000112                       # miss rate for demand accesses (Ratio)
system.cpu.icache.overallMissRate::cpu.inst     0.000112                       # miss rate for overall accesses (Ratio)
system.cpu.icache.overallMissRate::total     0.000112                       # miss rate for overall accesses (Ratio)
system.cpu.icache.demandAvgMissLatency::cpu.inst 102556.109726                       # average overall miss latency in ticks ((Tick/Count))
system.cpu.icache.demandAvgMissLatency::total 102556.109726                       # average overall miss latency in ticks ((Tick/Count))
system.cpu.icache.overallAvgMissLatency::cpu.inst 102556.109726                       # average overall miss latency ((Tick/Count))
system.cpu.icache.overallAvgMissLatency::total 102556.109726                       # average overall miss latency ((Tick/Count))
system.cpu.icache.blockedCycles::no_mshrs            0                       # number of cycles access was blocked (Cycle)
system.cpu.icache.blockedCycles::no_targets            0                       # number of cycles access was blocked (Cycle)
system.cpu.icache.blockedCauses::no_mshrs            0                       # number of times access was blocked (Count)
system.cpu.icache.blockedCauses::no_targets            0                       # number of times access was blocked (Count)
system.cpu.icache.avgBlocked::no_mshrs            nan                       # average number of cycles each access was blocked ((Cycle/Count))
system.cpu.icache.avgBlocked::no_targets          nan                       # average number of cycles each access was blocked ((Cycle/Count))
system.cpu.icache.demandMshrMisses::cpu.inst         1203                       # number of demand (read+write) MSHR misses (Count)
system.cpu.icache.demandMshrMisses::total         1203                       # number of demand (read+write) MSHR misses (Count)
system.cpu.icache.overallMshrMisses::cpu.inst         1203                       # number of overall MSHR misses (Count)
system.cpu.icache.overallMshrMisses::total         1203                       # number of overall MSHR misses (Count)
system.cpu.icache.demandMshrMissLatency::cpu.inst    120969000                       # number of demand (read+write) MSHR miss ticks (Tick)
system.cpu.icache.demandMshrMissLatency::total    120969000                       # number of demand (read+write) MSHR miss ticks (Tick)
system.cpu.icache.overallMshrMissLatency::cpu.inst    120969000                       # number of overall MSHR miss ticks (Tick)
system.cpu.icache.overallMshrMissLatency::total    120969000                       # number of overall MSHR miss ticks (Tick)
system.cpu.icache.demandMshrMissRate::cpu.inst     0.000112                       # mshr miss ratio for demand accesses (Ratio)
system.cpu.icache.demandMshrMissRate::total     0.000112                       # mshr miss ratio for demand accesses (Ratio)
system.cpu.icache.overallMshrMissRate::cpu.inst     0.000112                       # mshr miss ratio for overall accesses (Ratio)
system.cpu.icache.overallMshrMissRate::total     0.000112                       # mshr miss ratio for overall accesses (Ratio)
system.cpu.icache.demandAvgMshrMissLatency::cpu.inst 100556.109726                       # average overall mshr miss latency ((Tick/Count))
system.cpu.icache.demandAvgMshrMissLatency::total 100556.109726                       # average overall mshr miss latency ((Tick/Count))
system.cpu.icache.overallAvgMshrMissLatency::cpu.inst 100556.109726                       # average overall mshr miss latency ((Tick/Count))
system.cpu.icache.overallAvgMshrMissLatency::total 100556.109726                       # average overall mshr miss latency ((Tick/Count))
system.cpu.icache.replacements                    346                       # number of replacements (Count)
system.cpu.icache.ReadReq.hits::cpu.inst     10750568                       # number of ReadReq hits (Count)
system.cpu.icache.ReadReq.hits::total        10750568                       # number of ReadReq hits (Count)
system.cpu.icache.ReadReq.misses::cpu.inst         1203                       # number of ReadReq misses (Count)
system.cpu.icache.ReadReq.misses::total          1203                       # number of ReadReq misses (Count)
system.cpu.icache.ReadReq.missLatency::cpu.inst    123375000                       # number of ReadReq miss ticks (Tick)
system.cpu.icache.ReadReq.missLatency::total    123375000                       # number of ReadReq miss ticks (Tick)
system.cpu.icache.ReadReq.accesses::cpu.inst     10751771                       # number of ReadReq accesses(hits+misses) (Count)
system.cpu.icache.ReadReq.accesses::total     10751771                       # number of ReadReq accesses(hits+misses) (Count)
system.cpu.icache.ReadReq.missRate::cpu.inst     0.000112                       # miss rate for ReadReq accesses (Ratio)
system.cpu.icache.ReadReq.missRate::total     0.000112                       # miss rate for ReadReq accesses (Ratio)
system.cpu.icache.ReadReq.avgMissLatency::cpu.inst 102556.109726                       # average ReadReq miss latency ((Tick/Count))
system.cpu.icache.ReadReq.avgMissLatency::total 102556.109726                       # average ReadReq miss latency ((Tick/Count))
system.cpu.icache.ReadReq.mshrMisses::cpu.inst         1203                       # number of ReadReq MSHR misses (Count)
system.cpu.icache.ReadReq.mshrMisses::total         1203                       # number of ReadReq MSHR misses (Count)
system.cpu.icache.ReadReq.mshrMissLatency::cpu.inst    120969000                       # number of ReadReq MSHR miss ticks (Tick)
system.cpu.icache.ReadReq.mshrMissLatency::total    120969000                       # number of ReadReq MSHR miss ticks (Tick)
system.cpu.icache.ReadReq.mshrMissRate::cpu.inst     0.000112                       # mshr miss rate for ReadReq accesses (Ratio)
system.cpu.icache.ReadReq.mshrMissRate::total     0.000112                       # mshr miss rate for ReadReq accesses (Ratio)
system.cpu.icache.ReadReq.avgMshrMissLatency::cpu.inst 100556.109726                       # average ReadReq mshr miss latency ((Tick/Count))
system.cpu.icache.ReadReq.avgMshrMissLatency::total 100556.109726                       # average ReadReq mshr miss latency ((Tick/Count))
system.cpu.icache.power_state.pwrStateResidencyTicks::UNDEFINED  30861415000                       # Cumulative time (in ticks) in various power states (Tick)
system.cpu.icache.tags.tagsInUse           789.432179                       # Average ticks per tags in use ((Tick/Count))
system.cpu.icache.tags.totalRefs             10751771                       # Total number of references to valid blocks. (Count)
system.cpu.icache.tags.sampledRefs               1203                       # Sample count of references to valid blocks. (Count)
system.cpu.icache.tags.avgRefs            8937.465503                       # Average number of references to valid blocks. ((Count/Count))
system.cpu.icache.tags.warmupTick              107000                       # The tick when the warmup percentage was hit. (Tick)
system.cpu.icache.tags.occupancies::cpu.inst   789.432179                       # Average occupied blocks per tick, per requestor ((Count/Tick))
system.cpu.icache.tags.avgOccs::cpu.inst     0.770930                       # Average percentage of cache occupancy ((Ratio/Tick))
system.cpu.icache.tags.avgOccs::total        0.770930                       # Average percentage of cache occupancy ((Ratio/Tick))
system.cpu.icache.tags.occupanciesTaskId::1024          857                       # Occupied blocks per task id (Count)
system.cpu.icache.tags.ageTaskId_1024::0           50                       # Occupied blocks per task id, per block age (Count)
system.cpu.icache.tags.ageTaskId_1024::1          131                       # Occupied blocks per task id, per block age (Count)
system.cpu.icache.tags.ageTaskId_1024::2            3                       # Occupied blocks per task id, per block age (Count)
system.cpu.icache.tags.ageTaskId_1024::4          673                       # Occupied blocks per task id, per block age (Count)
system.cpu.icache.tags.ratioOccsTaskId::1024     0.836914                       # Ratio of occupied blocks and all blocks, per task id (Ratio)
system.cpu.icache.tags.tagAccesses           21504745                       # Number of tag accesses (Count)
system.cpu.icache.tags.dataAccesses          21504745                       # Number of data accesses (Count)
system.cpu.icache.tags.power_state.pwrStateResidencyTicks::UNDEFINED  30861415000                       # Cumulative time (in ticks) in various power states (Tick)
system.cpu.interrupts.clk_domain.clock          16000                       # Clock period in ticks (Tick)
system.cpu.mmu.dtb.rdAccesses                 2493818                       # TLB accesses on read requests (Count)
system.cpu.mmu.dtb.wrAccesses                 1239708                       # TLB accesses on write requests (Count)
system.cpu.mmu.dtb.rdMisses                       628                       # TLB misses on read requests (Count)
system.cpu.mmu.dtb.wrMisses                       232                       # TLB misses on write requests (Count)
system.cpu.mmu.dtb.walker.power_state.pwrStateResidencyTicks::UNDEFINED  30861415000                       # Cumulative time (in ticks) in various power states (Tick)
system.cpu.mmu.itb.rdAccesses                       0                       # TLB accesses on read requests (Count)
system.cpu.mmu.itb.wrAccesses                10751832                       # TLB accesses on write requests (Count)
system.cpu.mmu.itb.rdMisses                         0                       # TLB misses on read requests (Count)
system.cpu.mmu.itb.wrMisses                       219                       # TLB misses on write requests (Count)
system.cpu.mmu.itb.walker.power_state.pwrStateResidencyTicks::UNDEFINED  30861415000                       # Cumulative time (in ticks) in various power states (Tick)
system.cpu.power_state.pwrStateResidencyTicks::ON  30861415000                       # Cumulative time (in ticks) in various power states (Tick)
system.cpu.thread_0.numInsts                        0                       # Number of Instructions committed (Count)
system.cpu.thread_0.numOps                          0                       # Number of Ops committed (Count)
system.cpu.thread_0.numMemRefs                      0                       # Number of Memory References (Count)
system.cpu.workload.numSyscalls                    53                       # Number of system calls (Count)
system.l2bus.transDist::ReadResp                 4092                       # Transaction distribution (Count)
system.l2bus.transDist::WritebackDirty          24448                       # Transaction distribution (Count)
system.l2bus.transDist::CleanEvict              17578                       # Transaction distribution (Count)
system.l2bus.transDist::ReadExReq               13407                       # Transaction distribution (Count)
system.l2bus.transDist::ReadExResp              13407                       # Transaction distribution (Count)
system.l2bus.transDist::ReadSharedReq            4092                       # Transaction distribution (Count)
system.l2bus.pktCount_system.cpu.icache.mem_side_port::system.l2cache.cpu_side_port         2752                       # Packet count per connected requestor and responder (Count)
system.l2bus.pktCount_system.cpu.dcache.mem_side_port::system.l2cache.cpu_side_port        47864                       # Packet count per connected requestor and responder (Count)
system.l2bus.pktCount::total                    50616                       # Packet count per connected requestor and responder (Count)
system.l2bus.pktSize_system.cpu.icache.mem_side_port::system.l2cache.cpu_side_port        76992                       # Cumulative packet size per connected requestor and responder (Byte)
system.l2bus.pktSize_system.cpu.dcache.mem_side_port::system.l2cache.cpu_side_port      1869824                       # Cumulative packet size per connected requestor and responder (Byte)
system.l2bus.pktSize::total                   1946816                       # Cumulative packet size per connected requestor and responder (Byte)
system.l2bus.snoops                             26408                       # Total snoops (Count)
system.l2bus.snoopTraffic                      737792                       # Total snoop traffic (Byte)
system.l2bus.snoopFanout::samples               43907                       # Request fanout histogram (Count)
system.l2bus.snoopFanout::mean               0.307832                       # Request fanout histogram (Count)
system.l2bus.snoopFanout::stdev              0.461602                       # Request fanout histogram (Count)
system.l2bus.snoopFanout::underflows                0      0.00%      0.00% # Request fanout histogram (Count)
system.l2bus.snoopFanout::0                     30391     69.22%     69.22% # Request fanout histogram (Count)
system.l2bus.snoopFanout::1                     13516     30.78%    100.00% # Request fanout histogram (Count)
system.l2bus.snoopFanout::2                         0      0.00%    100.00% # Request fanout histogram (Count)
system.l2bus.snoopFanout::overflows                 0      0.00%    100.00% # Request fanout histogram (Count)
system.l2bus.snoopFanout::min_value                 0                       # Request fanout histogram (Count)
system.l2bus.snoopFanout::max_value                 1                       # Request fanout histogram (Count)
system.l2bus.snoopFanout::total                 43907                       # Request fanout histogram (Count)
system.l2bus.power_state.pwrStateResidencyTicks::UNDEFINED  30861415000                       # Cumulative time (in ticks) in various power states (Tick)
system.l2bus.reqLayer0.occupancy             58957000                       # Layer occupancy (ticks) (Tick)
system.l2bus.reqLayer0.utilization                0.0                       # Layer utilization (Ratio)
system.l2bus.respLayer0.occupancy             3609000                       # Layer occupancy (ticks) (Tick)
system.l2bus.respLayer0.utilization               0.0                       # Layer utilization (Ratio)
system.l2bus.respLayer1.occupancy            48888000                       # Layer occupancy (ticks) (Tick)
system.l2bus.respLayer1.utilization               0.0                       # Layer utilization (Ratio)
system.l2bus.snoop_filter.totRequests           33117                       # Total number of requests made to the snoop filter. (Count)
system.l2bus.snoop_filter.hitSingleRequests        15618                       # Number of requests hitting in the snoop filter with a single holder of the requested data. (Count)
system.l2bus.snoop_filter.hitMultiRequests            0                       # Number of requests hitting in the snoop filter with multiple (>1) holders of the requested data. (Count)
system.l2bus.snoop_filter.totSnoops             13516                       # Total number of snoops made to the snoop filter. (Count)
system.l2bus.snoop_filter.hitSingleSnoops        13516                       # Number of snoops hitting in the snoop filter with a single holder of the requested data. (Count)
system.l2bus.snoop_filter.hitMultiSnoops            0                       # Number of snoops hitting in the snoop filter with multiple (>1) holders of the requested data. (Count)
system.l2cache.demandHits::cpu.inst                 6                       # number of demand (read+write) hits (Count)
system.l2cache.demandHits::cpu.data               358                       # number of demand (read+write) hits (Count)
system.l2cache.demandHits::total                  364                       # number of demand (read+write) hits (Count)
system.l2cache.overallHits::cpu.inst                6                       # number of overall hits (Count)
system.l2cache.overallHits::cpu.data              358                       # number of overall hits (Count)
system.l2cache.overallHits::total                 364                       # number of overall hits (Count)
system.l2cache.demandMisses::cpu.inst            1197                       # number of demand (read+write) misses (Count)
system.l2cache.demandMisses::cpu.data           15938                       # number of demand (read+write) misses (Count)
system.l2cache.demandMisses::total              17135                       # number of demand (read+write) misses (Count)
system.l2cache.overallMisses::cpu.inst           1197                       # number of overall misses (Count)
system.l2cache.overallMisses::cpu.data          15938                       # number of overall misses (Count)
system.l2cache.overallMisses::total             17135                       # number of overall misses (Count)
system.l2cache.demandMissLatency::cpu.inst    117228000                       # number of demand (read+write) miss ticks (Tick)
system.l2cache.demandMissLatency::cpu.data   1714031000                       # number of demand (read+write) miss ticks (Tick)
system.l2cache.demandMissLatency::total    1831259000                       # number of demand (read+write) miss ticks (Tick)
system.l2cache.overallMissLatency::cpu.inst    117228000                       # number of overall miss ticks (Tick)
system.l2cache.overallMissLatency::cpu.data   1714031000                       # number of overall miss ticks (Tick)
system.l2cache.overallMissLatency::total   1831259000                       # number of overall miss ticks (Tick)
system.l2cache.demandAccesses::cpu.inst          1203                       # number of demand (read+write) accesses (Count)
system.l2cache.demandAccesses::cpu.data         16296                       # number of demand (read+write) accesses (Count)
system.l2cache.demandAccesses::total            17499                       # number of demand (read+write) accesses (Count)
system.l2cache.overallAccesses::cpu.inst         1203                       # number of overall (read+write) accesses (Count)
system.l2cache.overallAccesses::cpu.data        16296                       # number of overall (read+write) accesses (Count)
system.l2cache.overallAccesses::total           17499                       # number of overall (read+write) accesses (Count)
system.l2cache.demandMissRate::cpu.inst      0.995012                       # miss rate for demand accesses (Ratio)
system.l2cache.demandMissRate::cpu.data      0.978031                       # miss rate for demand accesses (Ratio)
system.l2cache.demandMissRate::total         0.979199                       # miss rate for demand accesses (Ratio)
system.l2cache.overallMissRate::cpu.inst     0.995012                       # miss rate for overall accesses (Ratio)
system.l2cache.overallMissRate::cpu.data     0.978031                       # miss rate for overall accesses (Ratio)
system.l2cache.overallMissRate::total        0.979199                       # miss rate for overall accesses (Ratio)
system.l2cache.demandAvgMissLatency::cpu.inst 97934.837093                       # average overall miss latency in ticks ((Tick/Count))
system.l2cache.demandAvgMissLatency::cpu.data 107543.669218                       # average overall miss latency in ticks ((Tick/Count))
system.l2cache.demandAvgMissLatency::total 106872.424861                       # average overall miss latency in ticks ((Tick/Count))
system.l2cache.overallAvgMissLatency::cpu.inst 97934.837093                       # average overall miss latency ((Tick/Count))
system.l2cache.overallAvgMissLatency::cpu.data 107543.669218                       # average overall miss latency ((Tick/Count))
system.l2cache.overallAvgMissLatency::total 106872.424861                       # average overall miss latency ((Tick/Count))
system.l2cache.blockedCycles::no_mshrs              0                       # number of cycles access was blocked (Cycle)
system.l2cache.blockedCycles::no_targets            0                       # number of cycles access was blocked (Cycle)
system.l2cache.blockedCauses::no_mshrs              0                       # number of times access was blocked (Count)
system.l2cache.blockedCauses::no_targets            0                       # number of times access was blocked (Count)
system.l2cache.avgBlocked::no_mshrs               nan                       # average number of cycles each access was blocked ((Cycle/Count))
system.l2cache.avgBlocked::no_targets             nan                       # average number of cycles each access was blocked ((Cycle/Count))
system.l2cache.writebacks::writebacks           11528                       # number of writebacks (Count)
system.l2cache.writebacks::total                11528                       # number of writebacks (Count)
system.l2cache.demandMshrMisses::cpu.inst         1197                       # number of demand (read+write) MSHR misses (Count)
system.l2cache.demandMshrMisses::cpu.data        15938                       # number of demand (read+write) MSHR misses (Count)
system.l2cache.demandMshrMisses::total          17135                       # number of demand (read+write) MSHR misses (Count)
system.l2cache.overallMshrMisses::cpu.inst         1197                       # number of overall MSHR misses (Count)
system.l2cache.overallMshrMisses::cpu.data        15938                       # number of overall MSHR misses (Count)
system.l2cache.overallMshrMisses::total         17135                       # number of overall MSHR misses (Count)
system.l2cache.demandMshrMissLatency::cpu.inst     93288000                       # number of demand (read+write) MSHR miss ticks (Tick)
system.l2cache.demandMshrMissLatency::cpu.data   1395271000                       # number of demand (read+write) MSHR miss ticks (Tick)
system.l2cache.demandMshrMissLatency::total   1488559000                       # number of demand (read+write) MSHR miss ticks (Tick)
system.l2cache.overallMshrMissLatency::cpu.inst     93288000                       # number of overall MSHR miss ticks (Tick)
system.l2cache.overallMshrMissLatency::cpu.data   1395271000                       # number of overall MSHR miss ticks (Tick)
system.l2cache.overallMshrMissLatency::total   1488559000                       # number of overall MSHR miss ticks (Tick)
system.l2cache.demandMshrMissRate::cpu.inst     0.995012                       # mshr miss ratio for demand accesses (Ratio)
system.l2cache.demandMshrMissRate::cpu.data     0.978031                       # mshr miss ratio for demand accesses (Ratio)
system.l2cache.demandMshrMissRate::total     0.979199                       # mshr miss ratio for demand accesses (Ratio)
system.l2cache.overallMshrMissRate::cpu.inst     0.995012                       # mshr miss ratio for overall accesses (Ratio)
system.l2cache.overallMshrMissRate::cpu.data     0.978031                       # mshr miss ratio for overall accesses (Ratio)
system.l2cache.overallMshrMissRate::total     0.979199                       # mshr miss ratio for overall accesses (Ratio)
system.l2cache.demandAvgMshrMissLatency::cpu.inst 77934.837093                       # average overall mshr miss latency ((Tick/Count))
system.l2cache.demandAvgMshrMissLatency::cpu.data 87543.669218                       # average overall mshr miss latency ((Tick/Count))
system.l2cache.demandAvgMshrMissLatency::total 86872.424861                       # average overall mshr miss latency ((Tick/Count))
system.l2cache.overallAvgMshrMissLatency::cpu.inst 77934.837093                       # average overall mshr miss latency ((Tick/Count))
system.l2cache.overallAvgMshrMissLatency::cpu.data 87543.669218                       # average overall mshr miss latency ((Tick/Count))
system.l2cache.overallAvgMshrMissLatency::total 86872.424861                       # average overall mshr miss latency ((Tick/Count))
system.l2cache.replacements                     26408                       # number of replacements (Count)
system.l2cache.CleanEvict.mshrMisses::writebacks         1184                       # number of CleanEvict MSHR misses (Count)
system.l2cache.CleanEvict.mshrMisses::total         1184                       # number of CleanEvict MSHR misses (Count)
system.l2cache.CleanEvict.mshrMissRate::writebacks          inf                       # mshr miss rate for CleanEvict accesses (Ratio)
system.l2cache.CleanEvict.mshrMissRate::total          inf                       # mshr miss rate for CleanEvict accesses (Ratio)
system.l2cache.ReadExReq.hits::cpu.data            36                       # number of ReadExReq hits (Count)
system.l2cache.ReadExReq.hits::total               36                       # number of ReadExReq hits (Count)
system.l2cache.ReadExReq.misses::cpu.data        13371                       # number of ReadExReq misses (Count)
system.l2cache.ReadExReq.misses::total          13371                       # number of ReadExReq misses (Count)
system.l2cache.ReadExReq.missLatency::cpu.data   1457247000                       # number of ReadExReq miss ticks (Tick)
system.l2cache.ReadExReq.missLatency::total   1457247000                       # number of ReadExReq miss ticks (Tick)
system.l2cache.ReadExReq.accesses::cpu.data        13407                       # number of ReadExReq accesses(hits+misses) (Count)
system.l2cache.ReadExReq.accesses::total        13407                       # number of ReadExReq accesses(hits+misses) (Count)
system.l2cache.ReadExReq.missRate::cpu.data     0.997315                       # miss rate for ReadExReq accesses (Ratio)
system.l2cache.ReadExReq.missRate::total     0.997315                       # miss rate for ReadExReq accesses (Ratio)
system.l2cache.ReadExReq.avgMissLatency::cpu.data 108985.640565                       # average ReadExReq miss latency ((Tick/Count))
system.l2cache.ReadExReq.avgMissLatency::total 108985.640565                       # average ReadExReq miss latency ((Tick/Count))
system.l2cache.ReadExReq.mshrMisses::cpu.data        13371                       # number of ReadExReq MSHR misses (Count)
system.l2cache.ReadExReq.mshrMisses::total        13371                       # number of ReadExReq MSHR misses (Count)
system.l2cache.ReadExReq.mshrMissLatency::cpu.data   1189827000                       # number of ReadExReq MSHR miss ticks (Tick)
system.l2cache.ReadExReq.mshrMissLatency::total   1189827000                       # number of ReadExReq MSHR miss ticks (Tick)
system.l2cache.ReadExReq.mshrMissRate::cpu.data     0.997315                       # mshr miss rate for ReadExReq accesses (Ratio)
system.l2cache.ReadExReq.mshrMissRate::total     0.997315                       # mshr miss rate for ReadExReq accesses (Ratio)
system.l2cache.ReadExReq.avgMshrMissLatency::cpu.data 88985.640565                       # average ReadExReq mshr miss latency ((Tick/Count))
system.l2cache.ReadExReq.avgMshrMissLatency::total 88985.640565                       # average ReadExReq mshr miss latency ((Tick/Count))
system.l2cache.ReadSharedReq.hits::cpu.inst            6                       # number of ReadSharedReq hits (Count)
system.l2cache.ReadSharedReq.hits::cpu.data          322                       # number of ReadSharedReq hits (Count)
system.l2cache.ReadSharedReq.hits::total          328                       # number of ReadSharedReq hits (Count)
system.l2cache.ReadSharedReq.misses::cpu.inst         1197                       # number of ReadSharedReq misses (Count)
system.l2cache.ReadSharedReq.misses::cpu.data         2567                       # number of ReadSharedReq misses (Count)
system.l2cache.ReadSharedReq.misses::total         3764                       # number of ReadSharedReq misses (Count)
system.l2cache.ReadSharedReq.missLatency::cpu.inst    117228000                       # number of ReadSharedReq miss ticks (Tick)
system.l2cache.ReadSharedReq.missLatency::cpu.data    256784000                       # number of ReadSharedReq miss ticks (Tick)
system.l2cache.ReadSharedReq.missLatency::total    374012000                       # number of ReadSharedReq miss ticks (Tick)
system.l2cache.ReadSharedReq.accesses::cpu.inst         1203                       # number of ReadSharedReq accesses(hits+misses) (Count)
system.l2cache.ReadSharedReq.accesses::cpu.data         2889                       # number of ReadSharedReq accesses(hits+misses) (Count)
system.l2cache.ReadSharedReq.accesses::total         4092                       # number of ReadSharedReq accesses(hits+misses) (Count)
system.l2cache.ReadSharedReq.missRate::cpu.inst     0.995012                       # miss rate for ReadSharedReq accesses (Ratio)
system.l2cache.ReadSharedReq.missRate::cpu.data     0.888543                       # miss rate for ReadSharedReq accesses (Ratio)
system.l2cache.ReadSharedReq.missRate::total     0.919844                       # miss rate for ReadSharedReq accesses (Ratio)
system.l2cache.ReadSharedReq.avgMissLatency::cpu.inst 97934.837093                       # average ReadSharedReq miss latency ((Tick/Count))
system.l2cache.ReadSharedReq.avgMissLatency::cpu.data 100032.723023                       # average ReadSharedReq miss latency ((Tick/Count))
system.l2cache.ReadSharedReq.avgMissLatency::total 99365.568544                       # average ReadSharedReq miss latency ((Tick/Count))
system.l2cache.ReadSharedReq.mshrMisses::cpu.inst         1197                       # number of ReadSharedReq MSHR misses (Count)
system.l2cache.ReadSharedReq.mshrMisses::cpu.data         2567                       # number of ReadSharedReq MSHR misses (Count)
system.l2cache.ReadSharedReq.mshrMisses::total         3764                       # number of ReadSharedReq MSHR misses (Count)
system.l2cache.ReadSharedReq.mshrMissLatency::cpu.inst     93288000                       # number of ReadSharedReq MSHR miss ticks (Tick)
system.l2cache.ReadSharedReq.mshrMissLatency::cpu.data    205444000                       # number of ReadSharedReq MSHR miss ticks (Tick)
system.l2cache.ReadSharedReq.mshrMissLatency::total    298732000                       # number of ReadSharedReq MSHR miss ticks (Tick)
system.l2cache.ReadSharedReq.mshrMissRate::cpu.inst     0.995012                       # mshr miss rate for ReadSharedReq accesses (Ratio)
system.l2cache.ReadSharedReq.mshrMissRate::cpu.data     0.888543                       # mshr miss rate for ReadSharedReq accesses (Ratio)
system.l2cache.ReadSharedReq.mshrMissRate::total     0.919844                       # mshr miss rate for ReadSharedReq accesses (Ratio)
system.l2cache.ReadSharedReq.avgMshrMissLatency::cpu.inst 77934.837093                       # average ReadSharedReq mshr miss latency ((Tick/Count))
system.l2cache.ReadSharedReq.avgMshrMissLatency::cpu.data 80032.723023                       # average ReadSharedReq mshr miss latency ((Tick/Count))
system.l2cache.ReadSharedReq.avgMshrMissLatency::total 79365.568544                       # average ReadSharedReq mshr miss latency ((Tick/Count))
system.l2cache.WritebackDirty.hits::writebacks        12920                       # number of WritebackDirty hits (Count)
system.l2cache.WritebackDirty.hits::total        12920                       # number of WritebackDirty hits (Count)
system.l2cache.WritebackDirty.accesses::writebacks        12920                       # number of WritebackDirty accesses(hits+misses) (Count)
system.l2cache.WritebackDirty.accesses::total        12920                       # number of WritebackDirty accesses(hits+misses) (Count)
system.l2cache.power_state.pwrStateResidencyTicks::UNDEFINED  30861415000                       # Cumulative time (in ticks) in various power states (Tick)
system.l2cache.tags.tagsInUse             2025.053251                       # Average ticks per tags in use ((Tick/Count))
system.l2cache.tags.totalRefs                   31933                       # Total number of references to valid blocks. (Count)
system.l2cache.tags.sampledRefs                 28456                       # Sample count of references to valid blocks. (Count)
system.l2cache.tags.avgRefs                  1.122189                       # Average number of references to valid blocks. ((Count/Count))
system.l2cache.tags.warmupTick                  86000                       # The tick when the warmup percentage was hit. (Tick)
system.l2cache.tags.occupancies::writebacks   823.414563                       # Average occupied blocks per tick, per requestor ((Count/Tick))
system.l2cache.tags.occupancies::cpu.inst    39.132592                       # Average occupied blocks per tick, per requestor ((Count/Tick))
system.l2cache.tags.occupancies::cpu.data  1162.506097                       # Average occupied blocks per tick, per requestor ((Count/Tick))
system.l2cache.tags.avgOccs::writebacks      0.402058                       # Average percentage of cache occupancy ((Ratio/Tick))
system.l2cache.tags.avgOccs::cpu.inst        0.019108                       # Average percentage of cache occupancy ((Ratio/Tick))
system.l2cache.tags.avgOccs::cpu.data        0.567630                       # Average percentage of cache occupancy ((Ratio/Tick))
system.l2cache.tags.avgOccs::total           0.988796                       # Average percentage of cache occupancy ((Ratio/Tick))
system.l2cache.tags.occupanciesTaskId::1024         2048                       # Occupied blocks per task id (Count)
system.l2cache.tags.ageTaskId_1024::0              85                       # Occupied blocks per task id, per block age (Count)
system.l2cache.tags.ageTaskId_1024::1             358                       # Occupied blocks per task id, per block age (Count)
system.l2cache.tags.ageTaskId_1024::2             411                       # Occupied blocks per task id, per block age (Count)
system.l2cache.tags.ageTaskId_1024::3            1194                       # Occupied blocks per task id, per block age (Count)
system.l2cache.tags.ratioOccsTaskId::1024            1                       # Ratio of occupied blocks and all blocks, per task id (Ratio)
system.l2cache.tags.tagAccesses                 94690                       # Number of tag accesses (Count)
system.l2cache.tags.dataAccesses                94690                       # Number of data accesses (Count)
system.l2cache.tags.power_state.pwrStateResidencyTicks::UNDEFINED  30861415000                       # Cumulative time (in ticks) in various power states (Tick)
system.mem_ctrl.avgPriority_writebacks::samples     11528.00                       # Average QoS priority value for accepted requests (Count)
system.mem_ctrl.avgPriority_cpu.inst::samples      1197.00                       # Average QoS priority value for accepted requests (Count)
system.mem_ctrl.avgPriority_cpu.data::samples     15929.00                       # Average QoS priority value for accepted requests (Count)
system.mem_ctrl.priorityMinLatency       0.000000018750                       # per QoS priority minimum request to response latency (Second)
system.mem_ctrl.priorityMaxLatency       0.001696184500                       # per QoS priority maximum request to response latency (Second)
system.mem_ctrl.numReadWriteTurnArounds           640                       # Number of turnarounds from READ to WRITE (Count)
system.mem_ctrl.numWriteReadTurnArounds           640                       # Number of turnarounds from WRITE to READ (Count)
system.mem_ctrl.numStayReadState                53690                       # Number of times bus staying in READ state (Count)
system.mem_ctrl.numStayWriteState               10866                       # Number of times bus staying in WRITE state (Count)
system.mem_ctrl.readReqs                        17135                       # Number of read requests accepted (Count)
system.mem_ctrl.writeReqs                       11528                       # Number of write requests accepted (Count)
system.mem_ctrl.readBursts                      17135                       # Number of controller read bursts, including those serviced by the write queue (Count)
system.mem_ctrl.writeBursts                     11528                       # Number of controller write bursts, including those merged in the write queue (Count)
system.mem_ctrl.servicedByWrQ                       9                       # Number of controller read bursts serviced by the write queue (Count)
system.mem_ctrl.mergedWrBursts                      0                       # Number of controller write bursts merged with an existing one (Count)
system.mem_ctrl.neitherReadNorWriteReqs             0                       # Number of requests that are neither read nor write (Count)
system.mem_ctrl.avgRdQLen                        1.00                       # Average read queue length when enqueuing ((Count/Tick))
system.mem_ctrl.avgWrQLen                       23.98                       # Average write queue length when enqueuing ((Count/Tick))
system.mem_ctrl.numRdRetry                          0                       # Number of times read queue was full causing retry (Count)
system.mem_ctrl.numWrRetry                          0                       # Number of times write queue was full causing retry (Count)
system.mem_ctrl.readPktSize::0                      0                       # Read request sizes (log2) (Count)
system.mem_ctrl.readPktSize::1                      0                       # Read request sizes (log2) (Count)
system.mem_ctrl.readPktSize::2                      0                       # Read request sizes (log2) (Count)
system.mem_ctrl.readPktSize::3                      0                       # Read request sizes (log2) (Count)
system.mem_ctrl.readPktSize::4                      0                       # Read request sizes (log2) (Count)
system.mem_ctrl.readPktSize::5                      0                       # Read request sizes (log2) (Count)
system.mem_ctrl.readPktSize::6                  17135                       # Read request sizes (log2) (Count)
system.mem_ctrl.writePktSize::0                     0                       # Write request sizes (log2) (Count)
system.mem_ctrl.writePktSize::1                     0                       # Write request sizes (log2) (Count)
system.mem_ctrl.writePktSize::2                     0                       # Write request sizes (log2) (Count)
system.mem_ctrl.writePktSize::3                     0                       # Write request sizes (log2) (Count)
system.mem_ctrl.writePktSize::4                     0                       # Write request sizes (log2) (Count)
system.mem_ctrl.writePktSize::5                     0                       # Write request sizes (log2) (Count)
system.mem_ctrl.writePktSize::6                 11528                       # Write request sizes (log2) (Count)
system.mem_ctrl.rdQLenPdf::0                    17126                       # What read queue length does an incoming req see (Count)
system.mem_ctrl.rdQLenPdf::1                        0                       # What read queue length does an incoming req see (Count)
system.mem_ctrl.rdQLenPdf::2                        0                       # What read queue length does an incoming req see (Count)
system.mem_ctrl.rdQLenPdf::3                        0                       # What read queue length does an incoming req see (Count)
system.mem_ctrl.rdQLenPdf::4                        0                       # What read queue length does an incoming req see (Count)
system.mem_ctrl.rdQLenPdf::5                        0                       # What read queue length does an incoming req see (Count)
system.mem_ctrl.rdQLenPdf::6                        0                       # What read queue length does an incoming req see (Count)
system.mem_ctrl.rdQLenPdf::7                        0                       # What read queue length does an incoming req see (Count)
system.mem_ctrl.rdQLenPdf::8                        0                       # What read queue length does an incoming req see (Count)
system.mem_ctrl.rdQLenPdf::9                        0                       # What read queue length does an incoming req see (Count)
system.mem_ctrl.rdQLenPdf::10                       0                       # What read queue length does an incoming req see (Count)
system.mem_ctrl.rdQLenPdf::11                       0                       # What read queue length does an incoming req see (Count)
system.mem_ctrl.rdQLenPdf::12                       0                       # What read queue length does an incoming req see (Count)
system.mem_ctrl.rdQLenPdf::13                       0                       # What read queue length does an incoming req see (Count)
system.mem_ctrl.rdQLenPdf::14                       0                       # What read queue length does an incoming req see (Count)
system.mem_ctrl.rdQLenPdf::15                       0                       # What read queue length does an incoming req see (Count)
system.mem_ctrl.rdQLenPdf::16                       0                       # What read queue length does an incoming req see (Count)
system.mem_ctrl.rdQLenPdf::17                       0                       # What read queue length does an incoming req see (Count)
system.mem_ctrl.rdQLenPdf::18                       0                       # What read queue length does an incoming req see (Count)
system.mem_ctrl.rdQLenPdf::19                       0                       # What read queue length does an incoming req see (Count)
system.mem_ctrl.rdQLenPdf::20                       0                       # What read queue length does an incoming req see (Count)
system.mem_ctrl.rdQLenPdf::21                       0                       # What read queue length does an incoming req see (Count)
system.mem_ctrl.rdQLenPdf::22                       0                       # What read queue length does an incoming req see (Count)
system.mem_ctrl.rdQLenPdf::23                       0                       # What read queue length does an incoming req see (Count)
system.mem_ctrl.rdQLenPdf::24                       0                       # What read queue length does an incoming req see (Count)
system.mem_ctrl.rdQLenPdf::25                       0                       # What read queue length does an incoming req see (Count)
system.mem_ctrl.rdQLenPdf::26                       0                       # What read queue length does an incoming req see (Count)
system.mem_ctrl.rdQLenPdf::27                       0                       # What read queue length does an incoming req see (Count)
system.mem_ctrl.rdQLenPdf::28                       0                       # What read queue length does an incoming req see (Count)
system.mem_ctrl.rdQLenPdf::29                       0                       # What read queue length does an incoming req see (Count)
system.mem_ctrl.rdQLenPdf::30                       0                       # What read queue length does an incoming req see (Count)
system.mem_ctrl.rdQLenPdf::31                       0                       # What read queue length does an incoming req see (Count)
system.mem_ctrl.wrQLenPdf::0                        1                       # What write queue length does an incoming req see (Count)
system.mem_ctrl.wrQLenPdf::1                        1                       # What write queue length does an incoming req see (Count)
system.mem_ctrl.wrQLenPdf::2                        1                       # What write queue length does an incoming req see (Count)
system.mem_ctrl.wrQLenPdf::3                        1                       # What write queue length does an incoming req see (Count)
system.mem_ctrl.wrQLenPdf::4                        1                       # What write queue length does an incoming req see (Count)
system.mem_ctrl.wrQLenPdf::5                        1                       # What write queue length does an incoming req see (Count)
system.mem_ctrl.wrQLenPdf::6                        1                       # What write queue length does an incoming req see (Count)
system.mem_ctrl.wrQLenPdf::7                        1                       # What write queue length does an incoming req see (Count)
system.mem_ctrl.wrQLenPdf::8                        1                       # What write queue length does an incoming req see (Count)
system.mem_ctrl.wrQLenPdf::9                        1                       # What write queue length does an incoming req see (Count)
system.mem_ctrl.wrQLenPdf::10                       1                       # What write queue length does an incoming req see (Count)
system.mem_ctrl.wrQLenPdf::11                       1                       # What write queue length does an incoming req see (Count)
system.mem_ctrl.wrQLenPdf::12                       1                       # What write queue length does an incoming req see (Count)
system.mem_ctrl.wrQLenPdf::13                       1                       # What write queue length does an incoming req see (Count)
system.mem_ctrl.wrQLenPdf::14                       1                       # What write queue length does an incoming req see (Count)
system.mem_ctrl.wrQLenPdf::15                     633                       # What write queue length does an incoming req see (Count)
system.mem_ctrl.wrQLenPdf::16                     633                       # What write queue length does an incoming req see (Count)
system.mem_ctrl.wrQLenPdf::17                     639                       # What write queue length does an incoming req see (Count)
[...]
system.mem_ctrl.dram.bytesWritten::total       737792                       # Number of bytes written to this memory (Byte)
system.mem_ctrl.dram.numReads::cpu.inst          1197                       # Number of read requests responded to by this memory (Count)
system.mem_ctrl.dram.numReads::cpu.data         15938                       # Number of read requests responded to by this memory (Count)
system.mem_ctrl.dram.numReads::total            17135                       # Number of read requests responded to by this memory (Count)
system.mem_ctrl.dram.numWrites::writebacks        11528                       # Number of write requests responded to by this memory (Count)
system.mem_ctrl.dram.numWrites::total           11528                       # Number of write requests responded to by this memory (Count)
system.mem_ctrl.dram.bwRead::cpu.inst         2482323                       # Total read bandwidth from this memory ((Byte/Second))
system.mem_ctrl.dram.bwRead::cpu.data        33052017                       # Total read bandwidth from this memory ((Byte/Second))
system.mem_ctrl.dram.bwRead::total           35534340                       # Total read bandwidth from this memory ((Byte/Second))
system.mem_ctrl.dram.bwInstRead::cpu.inst      2482323                       # Instruction read bandwidth from this memory ((Byte/Second))
system.mem_ctrl.dram.bwInstRead::total        2482323                       # Instruction read bandwidth from this memory ((Byte/Second))
system.mem_ctrl.dram.bwWrite::writebacks     23906616                       # Write bandwidth from this memory ((Byte/Second))
system.mem_ctrl.dram.bwWrite::total          23906616                       # Write bandwidth from this memory ((Byte/Second))
system.mem_ctrl.dram.bwTotal::writebacks     23906616                       # Total bandwidth to/from this memory ((Byte/Second))
system.mem_ctrl.dram.bwTotal::cpu.inst        2482323                       # Total bandwidth to/from this memory ((Byte/Second))
system.mem_ctrl.dram.bwTotal::cpu.data       33052017                       # Total bandwidth to/from this memory ((Byte/Second))
system.mem_ctrl.dram.bwTotal::total          59440956                       # Total bandwidth to/from this memory ((Byte/Second))
system.mem_ctrl.dram.readBursts                 17126                       # Number of DRAM read bursts (Count)
system.mem_ctrl.dram.writeBursts                11506                       # Number of DRAM write bursts (Count)
system.mem_ctrl.dram.perBankRdBursts::0          1036                       # Per bank write bursts (Count)
system.mem_ctrl.dram.perBankRdBursts::1          1092                       # Per bank write bursts (Count)
system.mem_ctrl.dram.perBankRdBursts::2          1082                       # Per bank write bursts (Count)
system.mem_ctrl.dram.perBankRdBursts::3           956                       # Per bank write bursts (Count)
system.mem_ctrl.dram.perBankRdBursts::4          1083                       # Per bank write bursts (Count)
system.mem_ctrl.dram.perBankRdBursts::5          1040                       # Per bank write bursts (Count)
system.mem_ctrl.dram.perBankRdBursts::6          1009                       # Per bank write bursts (Count)
system.mem_ctrl.dram.perBankRdBursts::7          1056                       # Per bank write bursts (Count)
system.mem_ctrl.dram.perBankRdBursts::8          1067                       # Per bank write bursts (Count)
system.mem_ctrl.dram.perBankRdBursts::9          1112                       # Per bank write bursts (Count)
system.mem_ctrl.dram.perBankRdBursts::10         1003                       # Per bank write bursts (Count)
system.mem_ctrl.dram.perBankRdBursts::11         1026                       # Per bank write bursts (Count)
system.mem_ctrl.dram.perBankRdBursts::12         1100                       # Per bank write bursts (Count)
system.mem_ctrl.dram.perBankRdBursts::13         1281                       # Per bank write bursts (Count)
system.mem_ctrl.dram.perBankRdBursts::14         1169                       # Per bank write bursts (Count)
system.mem_ctrl.dram.perBankRdBursts::15         1014                       # Per bank write bursts (Count)
system.mem_ctrl.dram.perBankWrBursts::0           654                       # Per bank write bursts (Count)
system.mem_ctrl.dram.perBankWrBursts::1           717                       # Per bank write bursts (Count)
system.mem_ctrl.dram.perBankWrBursts::2           698                       # Per bank write bursts (Count)
system.mem_ctrl.dram.perBankWrBursts::3           653                       # Per bank write bursts (Count)
system.mem_ctrl.dram.perBankWrBursts::4           717                       # Per bank write bursts (Count)
system.mem_ctrl.dram.perBankWrBursts::5           728                       # Per bank write bursts (Count)
system.mem_ctrl.dram.perBankWrBursts::6           750                       # Per bank write bursts (Count)
system.mem_ctrl.dram.perBankWrBursts::7           714                       # Per bank write bursts (Count)
system.mem_ctrl.dram.perBankWrBursts::8           711                       # Per bank write bursts (Count)
system.mem_ctrl.dram.perBankWrBursts::9           722                       # Per bank write bursts (Count)
system.mem_ctrl.dram.perBankWrBursts::10          767                       # Per bank write bursts (Count)
system.mem_ctrl.dram.perBankWrBursts::11          720                       # Per bank write bursts (Count)
system.mem_ctrl.dram.perBankWrBursts::12          735                       # Per bank write bursts (Count)
system.mem_ctrl.dram.perBankWrBursts::13          877                       # Per bank write bursts (Count)
system.mem_ctrl.dram.perBankWrBursts::14          688                       # Per bank write bursts (Count)
system.mem_ctrl.dram.perBankWrBursts::15          655                       # Per bank write bursts (Count)
system.mem_ctrl.dram.totQLat                288029000                       # Total ticks spent queuing (Tick)
system.mem_ctrl.dram.totBusLat               85630000                       # Total ticks spent in databus transfers (Tick)
system.mem_ctrl.dram.totMemAccLat           609141500                       # Total ticks spent from burst creation until serviced by the DRAM (Tick)
system.mem_ctrl.dram.avgQLat                 16818.23                       # Average queueing delay per DRAM burst ((Tick/Count))
system.mem_ctrl.dram.avgBusLat                5000.00                       # Average bus latency per DRAM burst ((Tick/Count))
system.mem_ctrl.dram.avgMemAccLat            35568.23                       # Average memory access latency per DRAM burst ((Tick/Count))
system.mem_ctrl.dram.readRowHits                11706                       # Number of row buffer hits during reads (Count)
system.mem_ctrl.dram.writeRowHits               10068                       # Number of row buffer hits during writes (Count)
system.mem_ctrl.dram.readRowHitRate             68.35                       # Row buffer hit rate for reads (Ratio)
system.mem_ctrl.dram.writeRowHitRate            87.50                       # Row buffer hit rate for writes (Ratio)
system.mem_ctrl.dram.bytesPerActivate::samples         6848                       # Bytes accessed per row activation (Byte)
system.mem_ctrl.dram.bytesPerActivate::mean   267.429907                       # Bytes accessed per row activation (Byte)
system.mem_ctrl.dram.bytesPerActivate::gmean   199.065195                       # Bytes accessed per row activation (Byte)
system.mem_ctrl.dram.bytesPerActivate::stdev   261.427589                       # Bytes accessed per row activation (Byte)
system.mem_ctrl.dram.bytesPerActivate::0-127          798     11.65%     11.65% # Bytes accessed per row activation (Byte)
system.mem_ctrl.dram.bytesPerActivate::128-255         3898     56.92%     68.57% # Bytes accessed per row activation (Byte)
system.mem_ctrl.dram.bytesPerActivate::256-383         1258     18.37%     86.95% # Bytes accessed per row activation (Byte)
system.mem_ctrl.dram.bytesPerActivate::384-511           97      1.42%     88.36% # Bytes accessed per row activation (Byte)
system.mem_ctrl.dram.bytesPerActivate::512-639           59      0.86%     89.22% # Bytes accessed per row activation (Byte)
system.mem_ctrl.dram.bytesPerActivate::640-767           51      0.74%     89.97% # Bytes accessed per row activation (Byte)
system.mem_ctrl.dram.bytesPerActivate::768-895           42      0.61%     90.58% # Bytes accessed per row activation (Byte)
system.mem_ctrl.dram.bytesPerActivate::896-1023           49      0.72%     91.30% # Bytes accessed per row activation (Byte)
system.mem_ctrl.dram.bytesPerActivate::1024-1151          596      8.70%    100.00% # Bytes accessed per row activation (Byte)
system.mem_ctrl.dram.bytesPerActivate::total         6848                       # Bytes accessed per row activation (Byte)
system.mem_ctrl.dram.dramBytesRead            1096064                       # Total bytes read (Byte)
system.mem_ctrl.dram.dramBytesWritten          736384                       # Total bytes written (Byte)
system.mem_ctrl.dram.avgRdBW                35.515675                       # Average DRAM read bandwidth in MiBytes/s ((Byte/Second))
system.mem_ctrl.dram.avgWrBW                23.860993                       # Average DRAM write bandwidth in MiBytes/s ((Byte/Second))
system.mem_ctrl.dram.peakBW                  12800.00                       # Theoretical peak bandwidth in MiByte/s ((Byte/Second))
system.mem_ctrl.dram.busUtil                     0.46                       # Data bus utilization in percentage (Ratio)
system.mem_ctrl.dram.busUtilRead                 0.28                       # Data bus utilization in percentage for reads (Ratio)
system.mem_ctrl.dram.busUtilWrite                0.19                       # Data bus utilization in percentage for writes (Ratio)
system.mem_ctrl.dram.pageHitRate                76.05                       # Row buffer hit rate, read and write combined (Ratio)
system.mem_ctrl.dram.power_state.pwrStateResidencyTicks::UNDEFINED  30861415000                       # Cumulative time (in ticks) in various power states (Tick)
system.mem_ctrl.dram.rank0.actEnergy         24497340                       # Energy for activate commands per rank (pJ) (Joule)
system.mem_ctrl.dram.rank0.preEnergy         12994080                       # Energy for precharge commands per rank (pJ) (Joule)
system.mem_ctrl.dram.rank0.readEnergy        59647560                       # Energy for read commands per rank (pJ) (Joule)
system.mem_ctrl.dram.rank0.writeEnergy       29393820                       # Energy for write commands per rank (pJ) (Joule)
system.mem_ctrl.dram.rank0.refreshEnergy 2435818320.000000                       # Energy for refresh commands per rank (pJ) (Joule)
system.mem_ctrl.dram.rank0.actBackEnergy   6590479650                       # Energy for active background per rank (pJ) (Joule)
system.mem_ctrl.dram.rank0.preBackEnergy   6300905760                       # Energy for precharge background per rank (pJ) (Joule)
system.mem_ctrl.dram.rank0.actPowerDownEnergy            0                       # Energy for active power-down per rank (pJ) (Joule)
system.mem_ctrl.dram.rank0.prePowerDownEnergy            0                       # Energy for precharge power-down per rank (pJ) (Joule)
system.mem_ctrl.dram.rank0.selfRefreshEnergy            0                       # Energy for self refresh per rank (pJ) (Joule)
system.mem_ctrl.dram.rank0.totalEnergy    15453736530                       # Total energy per rank (pJ) (Joule)
system.mem_ctrl.dram.rank0.averagePower    500.746208                       # Core power per rank (mW) (Watt)
system.mem_ctrl.dram.rank0.totalIdleTime            0                       # Total Idle time Per DRAM Rank (Tick)
system.mem_ctrl.dram.rank0.pwrStateTime::IDLE  16317429500                       # Time in different power states (Tick)
system.mem_ctrl.dram.rank0.pwrStateTime::REF   1030380000                       # Time in different power states (Tick)
system.mem_ctrl.dram.rank0.pwrStateTime::SREF            0                       # Time in different power states (Tick)
system.mem_ctrl.dram.rank0.pwrStateTime::PRE_PDN            0                       # Time in different power states (Tick)
system.mem_ctrl.dram.rank0.pwrStateTime::ACT  13513605500                       # Time in different power states (Tick)
system.mem_ctrl.dram.rank0.pwrStateTime::ACT_PDN            0                       # Time in different power states (Tick)
system.mem_ctrl.dram.rank1.actEnergy         24468780                       # Energy for activate commands per rank (pJ) (Joule)
system.mem_ctrl.dram.rank1.preEnergy         12994080                       # Energy for precharge commands per rank (pJ) (Joule)
system.mem_ctrl.dram.rank1.readEnergy        62632080                       # Energy for read commands per rank (pJ) (Joule)
system.mem_ctrl.dram.rank1.writeEnergy       30667500                       # Energy for write commands per rank (pJ) (Joule)
system.mem_ctrl.dram.rank1.refreshEnergy 2435818320.000000                       # Energy for refresh commands per rank (pJ) (Joule)
system.mem_ctrl.dram.rank1.actBackEnergy   6958575960                       # Energy for active background per rank (pJ) (Joule)
system.mem_ctrl.dram.rank1.preBackEnergy   5990929920                       # Energy for precharge background per rank (pJ) (Joule)
system.mem_ctrl.dram.rank1.actPowerDownEnergy            0                       # Energy for active power-down per rank (pJ) (Joule)
system.mem_ctrl.dram.rank1.prePowerDownEnergy            0                       # Energy for precharge power-down per rank (pJ) (Joule)
system.mem_ctrl.dram.rank1.selfRefreshEnergy            0                       # Energy for self refresh per rank (pJ) (Joule)
system.mem_ctrl.dram.rank1.totalEnergy    15516086640                       # Total energy per rank (pJ) (Joule)
system.mem_ctrl.dram.rank1.averagePower    502.766534                       # Core power per rank (mW) (Watt)
system.mem_ctrl.dram.rank1.totalIdleTime            0                       # Total Idle time Per DRAM Rank (Tick)
system.mem_ctrl.dram.rank1.pwrStateTime::IDLE  15508483500                       # Time in different power states (Tick)
system.mem_ctrl.dram.rank1.pwrStateTime::REF   1030380000                       # Time in different power states (Tick)
system.mem_ctrl.dram.rank1.pwrStateTime::SREF            0                       # Time in different power states (Tick)
system.mem_ctrl.dram.rank1.pwrStateTime::PRE_PDN            0                       # Time in different power states (Tick)
system.mem_ctrl.dram.rank1.pwrStateTime::ACT  14322551500                       # Time in different power states (Tick)
system.mem_ctrl.dram.rank1.pwrStateTime::ACT_PDN            0                       # Time in different power states (Tick)
system.mem_ctrl.power_state.pwrStateResidencyTicks::UNDEFINED  30861415000                       # Cumulative time (in ticks) in various power states (Tick)
system.membus.transDist::ReadResp                3764                       # Transaction distribution (Count)
system.membus.transDist::WritebackDirty         11528                       # Transaction distribution (Count)
system.membus.transDist::CleanEvict              2547                       # Transaction distribution (Count)
system.membus.transDist::ReadExReq              13371                       # Transaction distribution (Count)
system.membus.transDist::ReadExResp             13371                       # Transaction distribution (Count)
system.membus.transDist::ReadSharedReq           3764                       # Transaction distribution (Count)
system.membus.pktCount_system.l2cache.mem_side_port::system.mem_ctrl.port        48345                       # Packet count per connected requestor and responder (Count)
system.membus.pktCount_system.l2cache.mem_side_port::total        48345                       # Packet count per connected requestor and responder (Count)
system.membus.pktCount::total                   48345                       # Packet count per connected requestor and responder (Count)
system.membus.pktSize_system.l2cache.mem_side_port::system.mem_ctrl.port      1834432                       # Cumulative packet size per connected requestor and responder (Byte)
system.membus.pktSize_system.l2cache.mem_side_port::total      1834432                       # Cumulative packet size per connected requestor and responder (Byte)
system.membus.pktSize::total                  1834432                       # Cumulative packet size per connected requestor and responder (Byte)
system.membus.snoops                                0                       # Total snoops (Count)
system.membus.snoopTraffic                          0                       # Total snoop traffic (Byte)
system.membus.snoopFanout::samples              17135                       # Request fanout histogram (Count)
system.membus.snoopFanout::mean                     0                       # Request fanout histogram (Count)
system.membus.snoopFanout::stdev                    0                       # Request fanout histogram (Count)
system.membus.snoopFanout::underflows               0      0.00%      0.00% # Request fanout histogram (Count)
system.membus.snoopFanout::0                    17135    100.00%    100.00% # Request fanout histogram (Count)
system.membus.snoopFanout::1                        0      0.00%    100.00% # Request fanout histogram (Count)
system.membus.snoopFanout::overflows                0      0.00%    100.00% # Request fanout histogram (Count)
system.membus.snoopFanout::min_value                0                       # Request fanout histogram (Count)
system.membus.snoopFanout::max_value                0                       # Request fanout histogram (Count)
system.membus.snoopFanout::total                17135                       # Request fanout histogram (Count)
system.membus.power_state.pwrStateResidencyTicks::UNDEFINED  30861415000                       # Cumulative time (in ticks) in various power states (Tick)
system.membus.reqLayer2.occupancy            77322000                       # Layer occupancy (ticks) (Tick)
system.membus.reqLayer2.utilization               0.0                       # Layer utilization (Ratio)
system.membus.respLayer0.occupancy           91293500                       # Layer occupancy (ticks) (Tick)
system.membus.respLayer0.utilization              0.0                       # Layer utilization (Ratio)
system.membus.snoop_filter.totRequests          31210                       # Total number of requests made to the snoop filter. (Count)
system.membus.snoop_filter.hitSingleRequests        14075                       # Number of requests hitting in the snoop filter with a single holder of the requested data. (Count)
system.membus.snoop_filter.hitMultiRequests            0                       # Number of requests hitting in the snoop filter with multiple (>1) holders of the requested data. (Count)
system.membus.snoop_filter.totSnoops                0                       # Total number of snoops made to the snoop filter. (Count)
system.membus.snoop_filter.hitSingleSnoops            0                       # Number of snoops hitting in the snoop filter with a single holder of the requested data. (Count)
system.membus.snoop_filter.hitMultiSnoops            0                       # Number of snoops hitting in the snoop filter with multiple (>1) holders of the requested data. (Count)
system.workload.inst.arm                            0                       # number of arm instructions executed (Count)
system.workload.inst.quiesce                        0                       # number of quiesce instructions executed (Count)

---------- End Simulation Statistics   ----------
