
---------- Begin Simulation Statistics ----------
simSeconds                                   0.555330                       # Number of seconds simulated (Second)
simTicks                                 555330100000                       # Number of ticks simulated (Tick)
finalTick                                555330100000                       # Number of ticks from beginning of simulation (restored from checkpoints and never reset) (Tick)
simFreq                                  1000000000000                       # The number of ticks per simulated second ((Tick/Second))
hostSeconds                                    245.52                       # Real time elapsed on the host (Second)
hostTickRate                               2261872185                       # The number of ticks simulated per host second (ticks/s) ((Tick/Second))
hostMemory                                     701796                       # Number of bytes of host memory used (Byte)
simInsts                                    101932560                       # Number of instructions simulated (Count)
simOps                                      152109842                       # Number of ops (including micro ops) simulated (Count)
hostInstRate                                   415172                       # Simulator instruction rate (inst/s) ((Count/Second))
hostOpRate                                     619544                       # Simulator op (including micro ops) rate (op/s) ((Count/Second))
system.clk_domain.clock                          1000                       # Clock period in ticks (Tick)
system.clk_domain.voltage_domain.voltage            1                       # Voltage in Volts (Volt)
system.cpu.numCycles                        555330100                       # Number of cpu cycles simulated (Cycle)
system.cpu.cpi                               5.448008                       # CPI: cycles per instruction (core level) ((Cycle/Count))
system.cpu.ipc                               0.183553                       # IPC: instructions per cycle (core level) ((Count/Cycle))
system.cpu.numWorkItemsStarted                      0                       # Number of work items this cpu started (Count)
system.cpu.numWorkItemsCompleted                    0                       # Number of work items this cpu completed (Count)
system.cpu.commitStats0.numInsts            101932684                       # Number of instructions committed (thread level) (Count)
system.cpu.commitStats0.numOps              152110409                       # Number of ops (including micro ops) committed (thread level) (Count)
system.cpu.commitStats0.numInstsNotNOP              0                       # Number of instructions committed excluding NOPs or prefetches (Count)
system.cpu.commitStats0.numOpsNotNOP                0                       # Number of Ops (including micro ops) Simulated (Count)
system.cpu.commitStats0.cpi                  5.448008                       # CPI: cycles per instruction (thread level) ((Cycle/Count))
system.cpu.commitStats0.ipc                  0.183553                       # IPC: instructions per cycle (thread level) ((Count/Cycle))
system.cpu.commitStats0.numMemRefs                  0                       # Number of memory references committed (Count)
system.cpu.commitStats0.numFpInsts           36753850                       # Number of float instructions (Count)
system.cpu.commitStats0.numIntInsts         130094798                       # Number of integer instructions (Count)
system.cpu.commitStats0.numLoadInsts         43973736                       # Number of load instructions (Count)
system.cpu.commitStats0.numStoreInsts         9140521                       # Number of store instructions (Count)
system.cpu.commitStats0.numVecInsts                 0                       # Number of vector instructions (Count)
system.cpu.commitStats0.committedInstType::No_OpClass       846438      0.56%      0.56% # Class of committed instruction. (Count)
system.cpu.commitStats0.committedInstType::IntAlu     78584433     51.66%     52.22% # Class of committed instruction. (Count)
system.cpu.commitStats0.committedInstType::IntMult         9468      0.01%     52.23% # Class of committed instruction. (Count)
system.cpu.commitStats0.committedInstType::IntDiv         1806      0.00%     52.23% # Class of committed instruction. (Count)
system.cpu.commitStats0.committedInstType::FloatAdd     10467534      6.88%     59.11% # Class of committed instruction. (Count)
system.cpu.commitStats0.committedInstType::FloatCmp            0      0.00%     59.11% # Class of committed instruction. (Count)
system.cpu.commitStats0.committedInstType::FloatCvt           32      0.00%     59.11% # Class of committed instruction. (Count)
system.cpu.commitStats0.committedInstType::FloatMult            0      0.00%     59.11% # Class of committed instruction. (Count)
system.cpu.commitStats0.committedInstType::FloatMultAcc            0      0.00%     59.11% # Class of committed instruction. (Count)
system.cpu.commitStats0.committedInstType::FloatDiv            0      0.00%     59.11% # Class of committed instruction. (Count)
system.cpu.commitStats0.committedInstType::FloatMisc            0      0.00%     59.11% # Class of committed instruction. (Count)
system.cpu.commitStats0.committedInstType::FloatSqrt            0      0.00%     59.11% # Class of committed instruction. (Count)
system.cpu.commitStats0.committedInstType::SimdAdd          572      0.00%     59.11% # Class of committed instruction. (Count)
system.cpu.commitStats0.committedInstType::SimdAddAcc            0      0.00%     59.11% # Class of committed instruction. (Count)
system.cpu.commitStats0.committedInstType::SimdAlu       437544      0.29%     59.40% # Class of committed instruction. (Count)
system.cpu.commitStats0.committedInstType::SimdCmp            6      0.00%     59.40% # Class of committed instruction. (Count)
system.cpu.commitStats0.committedInstType::SimdCvt         1504      0.00%     59.40% # Class of committed instruction. (Count)
system.cpu.commitStats0.committedInstType::SimdMisc       623511      0.41%     59.81% # Class of committed instruction. (Count)
system.cpu.commitStats0.committedInstType::SimdMult            0      0.00%     59.81% # Class of committed instruction. (Count)
system.cpu.commitStats0.committedInstType::SimdMultAcc            0      0.00%     59.81% # Class of committed instruction. (Count)
system.cpu.commitStats0.committedInstType::SimdMatMultAcc            0      0.00%     59.81% # Class of committed instruction. (Count)
system.cpu.commitStats0.committedInstType::SimdShift          238      0.00%     59.81% # Class of committed instruction. (Count)
system.cpu.commitStats0.committedInstType::SimdShiftAcc            0      0.00%     59.81% # Class of committed instruction. (Count)
system.cpu.commitStats0.committedInstType::SimdDiv            0      0.00%     59.81% # Class of committed instruction. (Count)
system.cpu.commitStats0.committedInstType::SimdSqrt            0      0.00%     59.81% # Class of committed instruction. (Count)
system.cpu.commitStats0.committedInstType::SimdFloatAdd      3280910      2.16%     61.96% # Class of committed instruction. (Count)
system.cpu.commitStats0.committedInstType::SimdFloatAlu            0      0.00%     61.96% # Class of committed instruction. (Count)
system.cpu.commitStats0.committedInstType::SimdFloatCmp            0      0.00%     61.96% # Class of committed instruction. (Count)
system.cpu.commitStats0.committedInstType::SimdFloatCvt       211346      0.14%     62.10% # Class of committed instruction. (Count)
system.cpu.commitStats0.committedInstType::SimdFloatDiv       208296      0.14%     62.24% # Class of committed instruction. (Count)
system.cpu.commitStats0.committedInstType::SimdFloatMisc            0      0.00%     62.24% # Class of committed instruction. (Count)
system.cpu.commitStats0.committedInstType::SimdFloatMult      4322514      2.84%     65.08% # Class of committed instruction. (Count)
system.cpu.commitStats0.committedInstType::SimdFloatMultAcc            0      0.00%     65.08% # Class of committed instruction. (Count)
system.cpu.commitStats0.committedInstType::SimdFloatMatMultAcc            0      0.00%     65.08% # Class of committed instruction. (Count)
system.cpu.commitStats0.committedInstType::SimdFloatSqrt            0      0.00%     65.08% # Class of committed instruction. (Count)
system.cpu.commitStats0.committedInstType::SimdReduceAdd            0      0.00%     65.08% # Class of committed instruction. (Count)
system.cpu.commitStats0.committedInstType::SimdReduceAlu            0      0.00%     65.08% # Class of committed instruction. (Count)
system.cpu.commitStats0.committedInstType::SimdReduceCmp            0      0.00%     65.08% # Class of committed instruction. (Count)
system.cpu.commitStats0.committedInstType::SimdFloatReduceAdd            0      0.00%     65.08% # Class of committed instruction. (Count)
system.cpu.commitStats0.committedInstType::SimdFloatReduceCmp            0      0.00%     65.08% # Class of committed instruction. (Count)
system.cpu.commitStats0.committedInstType::SimdAes            0      0.00%     65.08% # Class of committed instruction. (Count)
system.cpu.commitStats0.committedInstType::SimdAesMix            0      0.00%     65.08% # Class of committed instruction. (Count)
system.cpu.commitStats0.committedInstType::SimdSha1Hash            0      0.00%     65.08% # Class of committed instruction. (Count)
system.cpu.commitStats0.committedInstType::SimdSha1Hash2            0      0.00%     65.08% # Class of committed instruction. (Count)
system.cpu.commitStats0.committedInstType::SimdSha256Hash            0      0.00%     65.08% # Class of committed instruction. (Count)
system.cpu.commitStats0.committedInstType::SimdSha256Hash2            0      0.00%     65.08% # Class of committed instruction. (Count)
system.cpu.commitStats0.committedInstType::SimdShaSigma2            0      0.00%     65.08% # Class of committed instruction. (Count)
system.cpu.commitStats0.committedInstType::SimdShaSigma3            0      0.00%     65.08% # Class of committed instruction. (Count)
system.cpu.commitStats0.committedInstType::SimdPredAlu            0      0.00%     65.08% # Class of committed instruction. (Count)
system.cpu.commitStats0.committedInstType::Matrix            0      0.00%     65.08% # Class of committed instruction. (Count)
system.cpu.commitStats0.committedInstType::MatrixMov            0      0.00%     65.08% # Class of committed instruction. (Count)
system.cpu.commitStats0.committedInstType::MatrixOP            0      0.00%     65.08% # Class of committed instruction. (Count)
system.cpu.commitStats0.committedInstType::MemRead     32895881     21.63%     86.71% # Class of committed instruction. (Count)
system.cpu.commitStats0.committedInstType::MemWrite      5255540      3.46%     90.16% # Class of committed instruction. (Count)
system.cpu.commitStats0.committedInstType::FloatMemRead     11077855      7.28%     97.45% # Class of committed instruction. (Count)
system.cpu.commitStats0.committedInstType::FloatMemWrite      3884981      2.55%    100.00% # Class of committed instruction. (Count)
system.cpu.commitStats0.committedInstType::IprAccess            0      0.00%    100.00% # Class of committed instruction. (Count)
system.cpu.commitStats0.committedInstType::InstPrefetch            0      0.00%    100.00% # Class of committed instruction. (Count)
system.cpu.commitStats0.committedInstType::SimdUnitStrideLoad            0      0.00%    100.00% # Class of committed instruction. (Count)
system.cpu.commitStats0.committedInstType::SimdUnitStrideStore            0      0.00%    100.00% # Class of committed instruction. (Count)
system.cpu.commitStats0.committedInstType::SimdUnitStrideMaskLoad            0      0.00%    100.00% # Class of committed instruction. (Count)
system.cpu.commitStats0.committedInstType::SimdUnitStrideMaskStore            0      0.00%    100.00% # Class of committed instruction. (Count)
system.cpu.commitStats0.committedInstType::SimdStridedLoad            0      0.00%    100.00% # Class of committed instruction. (Count)
system.cpu.commitStats0.committedInstType::SimdStridedStore            0      0.00%    100.00% # Class of committed instruction. (Count)
system.cpu.commitStats0.committedInstType::SimdIndexedLoad            0      0.00%    100.00% # Class of committed instruction. (Count)
system.cpu.commitStats0.committedInstType::SimdIndexedStore            0      0.00%    100.00% # Class of committed instruction. (Count)
system.cpu.commitStats0.committedInstType::SimdWholeRegisterLoad            0      0.00%    100.00% # Class of committed instruction. (Count)
system.cpu.commitStats0.committedInstType::SimdWholeRegisterStore            0      0.00%    100.00% # Class of committed instruction. (Count)
system.cpu.commitStats0.committedInstType::SimdUnitStrideFaultOnlyFirstLoad            0      0.00%    100.00% # Class of committed instruction. (Count)
system.cpu.commitStats0.committedInstType::SimdUnitStrideSegmentedLoad            0      0.00%    100.00% # Class of committed instruction. (Count)
system.cpu.commitStats0.committedInstType::SimdUnitStrideSegmentedStore            0      0.00%    100.00% # Class of committed instruction. (Count)
system.cpu.commitStats0.committedInstType::SimdExt            0      0.00%    100.00% # Class of committed instruction. (Count)
system.cpu.commitStats0.committedInstType::SimdFloatExt            0      0.00%    100.00% # Class of committed instruction. (Count)
system.cpu.commitStats0.committedInstType::SimdConfig            0      0.00%    100.00% # Class of committed instruction. (Count)
system.cpu.commitStats0.committedInstType::total    152110409                       # Class of committed instruction. (Count)
system.cpu.commitStats0.committedControl::IsControl      6912810                       # Class of control type instructions committed (Count)
system.cpu.commitStats0.committedControl::IsDirectControl      6061668                       # Class of control type instructions committed (Count)
system.cpu.commitStats0.committedControl::IsIndirectControl       851114                       # Class of control type instructions committed (Count)
system.cpu.commitStats0.committedControl::IsCondControl      5213441                       # Class of control type instructions committed (Count)
system.cpu.commitStats0.committedControl::IsUncondControl      1699341                       # Class of control type instructions committed (Count)
system.cpu.commitStats0.committedControl::IsCall       627916                       # Class of control type instructions committed (Count)
system.cpu.commitStats0.committedControl::IsReturn       627912                       # Class of control type instructions committed (Count)
system.cpu.dcache.demandHits::cpu.data       51614181                       # number of demand (read+write) hits (Count)
system.cpu.dcache.demandHits::total          51614181                       # number of demand (read+write) hits (Count)
system.cpu.dcache.overallHits::cpu.data      51614181                       # number of overall hits (Count)
system.cpu.dcache.overallHits::total         51614181                       # number of overall hits (Count)
system.cpu.dcache.demandMisses::cpu.data      1499614                       # number of demand (read+write) misses (Count)
system.cpu.dcache.demandMisses::total         1499614                       # number of demand (read+write) misses (Count)
system.cpu.dcache.overallMisses::cpu.data      1499614                       # number of overall misses (Count)
system.cpu.dcache.overallMisses::total        1499614                       # number of overall misses (Count)
system.cpu.dcache.demandMissLatency::cpu.data 152088494000                       # number of demand (read+write) miss ticks (Tick)
system.cpu.dcache.demandMissLatency::total 152088494000                       # number of demand (read+write) miss ticks (Tick)
system.cpu.dcache.overallMissLatency::cpu.data 152088494000                       # number of overall miss ticks (Tick)
system.cpu.dcache.overallMissLatency::total 152088494000                       # number of overall miss ticks (Tick)
system.cpu.dcache.demandAccesses::cpu.data     53113795                       # number of demand (read+write) accesses (Count)
system.cpu.dcache.demandAccesses::total      53113795                       # number of demand (read+write) accesses (Count)
system.cpu.dcache.overallAccesses::cpu.data     53113795                       # number of overall (read+write) accesses (Count)
system.cpu.dcache.overallAccesses::total     53113795                       # number of overall (read+write) accesses (Count)
system.cpu.dcache.demandMissRate::cpu.data     0.028234                       # miss rate for demand accesses (Ratio)
system.cpu.dcache.demandMissRate::total      0.028234                       # miss rate for demand accesses (Ratio)
system.cpu.dcache.overallMissRate::cpu.data     0.028234                       # miss rate for overall accesses (Ratio)
system.cpu.dcache.overallMissRate::total     0.028234                       # miss rate for overall accesses (Ratio)
system.cpu.dcache.demandAvgMissLatency::cpu.data 101418.427675                       # average overall miss latency in ticks ((Tick/Count))
system.cpu.dcache.demandAvgMissLatency::total 101418.427675                       # average overall miss latency in ticks ((Tick/Count))
system.cpu.dcache.overallAvgMissLatency::cpu.data 101418.427675                       # average overall miss latency ((Tick/Count))
system.cpu.dcache.overallAvgMissLatency::total 101418.427675                       # average overall miss latency ((Tick/Count))
system.cpu.dcache.blockedCycles::no_mshrs            0                       # number of cycles access was blocked (Cycle)
system.cpu.dcache.blockedCycles::no_targets            0                       # number of cycles access was blocked (Cycle)
system.cpu.dcache.blockedCauses::no_mshrs            0                       # number of times access was blocked (Count)
system.cpu.dcache.blockedCauses::no_targets            0                       # number of times access was blocked (Count)
system.cpu.dcache.avgBlocked::no_mshrs            nan                       # average number of cycles each access was blocked ((Cycle/Count))
system.cpu.dcache.avgBlocked::no_targets          nan                       # average number of cycles each access was blocked ((Cycle/Count))
system.cpu.dcache.writebacks::writebacks       156199                       # number of writebacks (Count)
system.cpu.dcache.writebacks::total            156199                       # number of writebacks (Count)
system.cpu.dcache.demandMshrMisses::cpu.data      1499614                       # number of demand (read+write) MSHR misses (Count)
system.cpu.dcache.demandMshrMisses::total      1499614                       # number of demand (read+write) MSHR misses (Count)
system.cpu.dcache.overallMshrMisses::cpu.data      1499614                       # number of overall MSHR misses (Count)
system.cpu.dcache.overallMshrMisses::total      1499614                       # number of overall MSHR misses (Count)
system.cpu.dcache.demandMshrMissLatency::cpu.data 149089266000                       # number of demand (read+write) MSHR miss ticks (Tick)
system.cpu.dcache.demandMshrMissLatency::total 149089266000                       # number of demand (read+write) MSHR miss ticks (Tick)
system.cpu.dcache.overallMshrMissLatency::cpu.data 149089266000                       # number of overall MSHR miss ticks (Tick)
system.cpu.dcache.overallMshrMissLatency::total 149089266000                       # number of overall MSHR miss ticks (Tick)
system.cpu.dcache.demandMshrMissRate::cpu.data     0.028234                       # mshr miss ratio for demand accesses (Ratio)
system.cpu.dcache.demandMshrMissRate::total     0.028234                       # mshr miss ratio for demand accesses (Ratio)
system.cpu.dcache.overallMshrMissRate::cpu.data     0.028234                       # mshr miss ratio for overall accesses (Ratio)
system.cpu.dcache.overallMshrMissRate::total     0.028234                       # mshr miss ratio for overall accesses (Ratio)
system.cpu.dcache.demandAvgMshrMissLatency::cpu.data 99418.427675                       # average overall mshr miss latency ((Tick/Count))
system.cpu.dcache.demandAvgMshrMissLatency::total 99418.427675                       # average overall mshr miss latency ((Tick/Count))
system.cpu.dcache.overallAvgMshrMissLatency::cpu.data 99418.427675                       # average overall mshr miss latency ((Tick/Count))
system.cpu.dcache.overallAvgMshrMissLatency::total 99418.427675                       # average overall mshr miss latency ((Tick/Count))
system.cpu.dcache.replacements                1498590                       # number of replacements (Count)
system.cpu.dcache.ReadReq.hits::cpu.data     42501767                       # number of ReadReq hits (Count)
system.cpu.dcache.ReadReq.hits::total        42501767                       # number of ReadReq hits (Count)
system.cpu.dcache.ReadReq.misses::cpu.data      1471530                       # number of ReadReq misses (Count)
system.cpu.dcache.ReadReq.misses::total       1471530                       # number of ReadReq misses (Count)
system.cpu.dcache.ReadReq.missLatency::cpu.data 149239568000                       # number of ReadReq miss ticks (Tick)
system.cpu.dcache.ReadReq.missLatency::total 149239568000                       # number of ReadReq miss ticks (Tick)
system.cpu.dcache.ReadReq.accesses::cpu.data     43973297                       # number of ReadReq accesses(hits+misses) (Count)
system.cpu.dcache.ReadReq.accesses::total     43973297                       # number of ReadReq accesses(hits+misses) (Count)
system.cpu.dcache.ReadReq.missRate::cpu.data     0.033464                       # miss rate for ReadReq accesses (Ratio)
system.cpu.dcache.ReadReq.missRate::total     0.033464                       # miss rate for ReadReq accesses (Ratio)
system.cpu.dcache.ReadReq.avgMissLatency::cpu.data 101417.958180                       # average ReadReq miss latency ((Tick/Count))
system.cpu.dcache.ReadReq.avgMissLatency::total 101417.958180                       # average ReadReq miss latency ((Tick/Count))
system.cpu.dcache.ReadReq.mshrMisses::cpu.data      1471530                       # number of ReadReq MSHR misses (Count)
system.cpu.dcache.ReadReq.mshrMisses::total      1471530                       # number of ReadReq MSHR misses (Count)
system.cpu.dcache.ReadReq.mshrMissLatency::cpu.data 146296508000                       # number of ReadReq MSHR miss ticks (Tick)
system.cpu.dcache.ReadReq.mshrMissLatency::total 146296508000                       # number of ReadReq MSHR miss ticks (Tick)
system.cpu.dcache.ReadReq.mshrMissRate::cpu.data     0.033464                       # mshr miss rate for ReadReq accesses (Ratio)
system.cpu.dcache.ReadReq.mshrMissRate::total     0.033464                       # mshr miss rate for ReadReq accesses (Ratio)
system.cpu.dcache.ReadReq.avgMshrMissLatency::cpu.data 99417.958180                       # average ReadReq mshr miss latency ((Tick/Count))
system.cpu.dcache.ReadReq.avgMshrMissLatency::total 99417.958180                       # average ReadReq mshr miss latency ((Tick/Count))
system.cpu.dcache.WriteReq.hits::cpu.data      9112414                       # number of WriteReq hits (Count)
system.cpu.dcache.WriteReq.hits::total        9112414                       # number of WriteReq hits (Count)
system.cpu.dcache.WriteReq.misses::cpu.data        28084                       # number of WriteReq misses (Count)
system.cpu.dcache.WriteReq.misses::total        28084                       # number of WriteReq misses (Count)
system.cpu.dcache.WriteReq.missLatency::cpu.data   2848926000                       # number of WriteReq miss ticks (Tick)
system.cpu.dcache.WriteReq.missLatency::total   2848926000                       # number of WriteReq miss ticks (Tick)
system.cpu.dcache.WriteReq.accesses::cpu.data      9140498                       # number of WriteReq accesses(hits+misses) (Count)
system.cpu.dcache.WriteReq.accesses::total      9140498                       # number of WriteReq accesses(hits+misses) (Count)
system.cpu.dcache.WriteReq.missRate::cpu.data     0.003072                       # miss rate for WriteReq accesses (Ratio)
system.cpu.dcache.WriteReq.missRate::total     0.003072                       # miss rate for WriteReq accesses (Ratio)
system.cpu.dcache.WriteReq.avgMissLatency::cpu.data 101443.028059                       # average WriteReq miss latency ((Tick/Count))
system.cpu.dcache.WriteReq.avgMissLatency::total 101443.028059                       # average WriteReq miss latency ((Tick/Count))
system.cpu.dcache.WriteReq.mshrMisses::cpu.data        28084                       # number of WriteReq MSHR misses (Count)
system.cpu.dcache.WriteReq.mshrMisses::total        28084                       # number of WriteReq MSHR misses (Count)
system.cpu.dcache.WriteReq.mshrMissLatency::cpu.data   2792758000                       # number of WriteReq MSHR miss ticks (Tick)
system.cpu.dcache.WriteReq.mshrMissLatency::total   2792758000                       # number of WriteReq MSHR miss ticks (Tick)
system.cpu.dcache.WriteReq.mshrMissRate::cpu.data     0.003072                       # mshr miss rate for WriteReq accesses (Ratio)
system.cpu.dcache.WriteReq.mshrMissRate::total     0.003072                       # mshr miss rate for WriteReq accesses (Ratio)
system.cpu.dcache.WriteReq.avgMshrMissLatency::cpu.data 99443.028059                       # average WriteReq mshr miss latency ((Tick/Count))
system.cpu.dcache.WriteReq.avgMshrMissLatency::total 99443.028059                       # average WriteReq mshr miss latency ((Tick/Count))
system.cpu.dcache.power_state.pwrStateResidencyTicks::UNDEFINED 555330100000                       # Cumulative time (in ticks) in various power states (Tick)
system.cpu.dcache.tags.tagsInUse          1023.614667                       # Average ticks per tags in use ((Tick/Count))
system.cpu.dcache.tags.totalRefs             53113795                       # Total number of references to valid blocks. (Count)
system.cpu.dcache.tags.sampledRefs            1499614                       # Sample count of references to valid blocks. (Count)
system.cpu.dcache.tags.avgRefs              35.418311                       # Average number of references to valid blocks. ((Count/Count))
system.cpu.dcache.tags.warmupTick              218000                       # The tick when the warmup percentage was hit. (Tick)
system.cpu.dcache.tags.occupancies::cpu.data  1023.614667                       # Average occupied blocks per tick, per requestor ((Count/Tick))
system.cpu.dcache.tags.avgOccs::cpu.data     0.999624                       # Average percentage of cache occupancy ((Ratio/Tick))
system.cpu.dcache.tags.avgOccs::total        0.999624                       # Average percentage of cache occupancy ((Ratio/Tick))
system.cpu.dcache.tags.occupanciesTaskId::1024         1024                       # Occupied blocks per task id (Count)
system.cpu.dcache.tags.ageTaskId_1024::0           23                       # Occupied blocks per task id, per block age (Count)
system.cpu.dcache.tags.ageTaskId_1024::1          106                       # Occupied blocks per task id, per block age (Count)
system.cpu.dcache.tags.ageTaskId_1024::2          343                       # Occupied blocks per task id, per block age (Count)
system.cpu.dcache.tags.ageTaskId_1024::3          152                       # Occupied blocks per task id, per block age (Count)
system.cpu.dcache.tags.ageTaskId_1024::4          400                       # Occupied blocks per task id, per block age (Count)
system.cpu.dcache.tags.ratioOccsTaskId::1024            1                       # Ratio of occupied blocks and all blocks, per task id (Ratio)
system.cpu.dcache.tags.tagAccesses          107727204                       # Number of tag accesses (Count)
system.cpu.dcache.tags.dataAccesses         107727204                       # Number of data accesses (Count)
system.cpu.dcache.tags.power_state.pwrStateResidencyTicks::UNDEFINED 555330100000                       # Cumulative time (in ticks) in various power states (Tick)
system.cpu.exec_context.thread_0.numMatAluAccesses            0                       # Number of matrix alu accesses (Count)
system.cpu.exec_context.thread_0.numCallsReturns      1255828                       # Number of times a function call or return occured (Count)
system.cpu.exec_context.thread_0.numMatInsts            0                       # Number of matrix instructions (Count)
system.cpu.exec_context.thread_0.numIdleCycles     0.001000                       # Number of idle cycles (Cycle)
system.cpu.exec_context.thread_0.numBusyCycles 555330099.999000                       # Number of busy cycles (Cycle)
system.cpu.exec_context.thread_0.notIdleFraction     1.000000                       # Percentage of non-idle cycles (Ratio)
system.cpu.exec_context.thread_0.idleFraction     0.000000                       # Percentage of idle cycles (Ratio)
system.cpu.executeStats0.numInsts                   0                       # Number of executed instructions (Count)
system.cpu.executeStats0.numNop                     0                       # Number of nop insts executed (Count)
system.cpu.executeStats0.numBranches                0                       # Number of branches executed (Count)
system.cpu.executeStats0.numLoadInsts               0                       # Number of load instructions executed (Count)
system.cpu.executeStats0.numStoreInsts       53114257                       # Number of stores executed (Count)
system.cpu.executeStats0.instRate                   0                       # Inst execution rate ((Count/Cycle))
system.cpu.executeStats0.numFpAluAccesses     36753850                       # Number of float alu accesses (Count)
system.cpu.executeStats0.numFpRegReads       33722624                       # Number of times the floating registers were read (Count)
system.cpu.executeStats0.numFpRegWrites      32861523                       # Number of times the floating registers were written (Count)
system.cpu.executeStats0.numIntAluAccesses    130094798                       # Number of integer alu accesses (Count)
system.cpu.executeStats0.numIntRegReads     155489688                       # Number of times the integer registers were read (Count)
system.cpu.executeStats0.numIntRegWrites     97145147                       # Number of times the integer registers were written (Count)
system.cpu.executeStats0.numMemRefs          53114257                       # Number of memory refs (Count)
system.cpu.executeStats0.numMiscRegReads     67177318                       # Number of times the Misc registers were read (Count)
system.cpu.executeStats0.numMiscRegWrites           18                       # Number of times the Misc registers were written (Count)
system.cpu.executeStats0.numVecAluAccesses            0                       # Number of vector alu accesses (Count)
system.cpu.executeStats0.numDiscardedOps            0                       # Number of ops (including micro ops) which were discarded before commit (Count)
system.cpu.fetchStats0.numInsts             101932684                       # Number of instructions fetched (thread level) (Count)
system.cpu.fetchStats0.numOps               152110409                       # Number of ops (including micro ops) fetched (thread level) (Count)
system.cpu.fetchStats0.fetchRate             0.183553                       # Number of inst fetches per cycle ((Count/Cycle))
system.cpu.fetchStats0.numBranches            6912810                       # Number of branches fetched (Count)
system.cpu.fetchStats0.branchRate            0.012448                       # Number of branch fetches per cycle (Ratio)
system.cpu.fetchStats0.numFetchSuspends             0                       # Number of times Execute suspended instruction fetching (Count)
system.cpu.icache.demandHits::cpu.inst      149924850                       # number of demand (read+write) hits (Count)
system.cpu.icache.demandHits::total         149924850                       # number of demand (read+write) hits (Count)
system.cpu.icache.overallHits::cpu.inst     149924850                       # number of overall hits (Count)
system.cpu.icache.overallHits::total        149924850                       # number of overall hits (Count)
system.cpu.icache.demandMisses::cpu.inst         1580                       # number of demand (read+write) misses (Count)
system.cpu.icache.demandMisses::total            1580                       # number of demand (read+write) misses (Count)
system.cpu.icache.overallMisses::cpu.inst         1580                       # number of overall misses (Count)
system.cpu.icache.overallMisses::total           1580                       # number of overall misses (Count)
system.cpu.icache.demandMissLatency::cpu.inst    163814000                       # number of demand (read+write) miss ticks (Tick)
system.cpu.icache.demandMissLatency::total    163814000                       # number of demand (read+write) miss ticks (Tick)
system.cpu.icache.overallMissLatency::cpu.inst    163814000                       # number of overall miss ticks (Tick)
system.cpu.icache.overallMissLatency::total    163814000                       # number of overall miss ticks (Tick)
system.cpu.icache.demandAccesses::cpu.inst    149926430                       # number of demand (read+write) accesses (Count)
system.cpu.icache.demandAccesses::total     149926430                       # number of demand (read+write) accesses (Count)
system.cpu.icache.overallAccesses::cpu.inst    149926430                       # number of overall (read+write) accesses (Count)
system.cpu.icache.overallAccesses::total    149926430                       # number of overall (read+write) accesses (Count)
system.cpu.icache.demandMissRate::cpu.inst     0.000011                       # miss rate for demand accesses (Ratio)
system.cpu.icache.demandMissRate::total      0.000011                       # miss rate for demand accesses (Ratio)
system.cpu.icache.overallMissRate::cpu.inst     0.000011                       # miss rate for overall accesses (Ratio)
system.cpu.icache.overallMissRate::total     0.000011                       # miss rate for overall accesses (Ratio)
system.cpu.icache.demandAvgMissLatency::cpu.inst 103679.746835                       # average overall miss latency in ticks ((Tick/Count))
system.cpu.icache.demandAvgMissLatency::total 103679.746835                       # average overall miss latency in ticks ((Tick/Count))
system.cpu.icache.overallAvgMissLatency::cpu.inst 103679.746835                       # average overall miss latency ((Tick/Count))
system.cpu.icache.overallAvgMissLatency::total 103679.746835                       # average overall miss latency ((Tick/Count))
system.cpu.icache.blockedCycles::no_mshrs            0                       # number of cycles access was blocked (Cycle)
system.cpu.icache.blockedCycles::no_targets            0                       # number of cycles access was blocked (Cycle)
system.cpu.icache.blockedCauses::no_mshrs            0                       # number of times access was blocked (Count)
system.cpu.icache.blockedCauses::no_targets            0                       # number of times access was blocked (Count)
system.cpu.icache.avgBlocked::no_mshrs            nan                       # average number of cycles each access was blocked ((Cycle/Count))
system.cpu.icache.avgBlocked::no_targets          nan                       # average number of cycles each access was blocked ((Cycle/Count))
system.cpu.icache.demandMshrMisses::cpu.inst         1580                       # number of demand (read+write) MSHR misses (Count)
system.cpu.icache.demandMshrMisses::total         1580                       # number of demand (read+write) MSHR misses (Count)
system.cpu.icache.overallMshrMisses::cpu.inst         1580                       # number of overall MSHR misses (Count)
system.cpu.icache.overallMshrMisses::total         1580                       # number of overall MSHR misses (Count)
system.cpu.icache.demandMshrMissLatency::cpu.inst    160654000                       # number of demand (read+write) MSHR miss ticks (Tick)
system.cpu.icache.demandMshrMissLatency::total    160654000                       # number of demand (read+write) MSHR miss ticks (Tick)
system.cpu.icache.overallMshrMissLatency::cpu.inst    160654000                       # number of overall MSHR miss ticks (Tick)
system.cpu.icache.overallMshrMissLatency::total    160654000                       # number of overall MSHR miss ticks (Tick)
system.cpu.icache.demandMshrMissRate::cpu.inst     0.000011                       # mshr miss ratio for demand accesses (Ratio)
system.cpu.icache.demandMshrMissRate::total     0.000011                       # mshr miss ratio for demand accesses (Ratio)
system.cpu.icache.overallMshrMissRate::cpu.inst     0.000011                       # mshr miss ratio for overall accesses (Ratio)
system.cpu.icache.overallMshrMissRate::total     0.000011                       # mshr miss ratio for overall accesses (Ratio)
system.cpu.icache.demandAvgMshrMissLatency::cpu.inst 101679.746835                       # average overall mshr miss latency ((Tick/Count))
system.cpu.icache.demandAvgMshrMissLatency::total 101679.746835                       # average overall mshr miss latency ((Tick/Count))
system.cpu.icache.overallAvgMshrMissLatency::cpu.inst 101679.746835                       # average overall mshr miss latency ((Tick/Count))
system.cpu.icache.overallAvgMshrMissLatency::total 101679.746835                       # average overall mshr miss latency ((Tick/Count))
system.cpu.icache.replacements                    671                       # number of replacements (Count)
system.cpu.icache.ReadReq.hits::cpu.inst    149924850                       # number of ReadReq hits (Count)
system.cpu.icache.ReadReq.hits::total       149924850                       # number of ReadReq hits (Count)
system.cpu.icache.ReadReq.misses::cpu.inst         1580                       # number of ReadReq misses (Count)
system.cpu.icache.ReadReq.misses::total          1580                       # number of ReadReq misses (Count)
system.cpu.icache.ReadReq.missLatency::cpu.inst    163814000                       # number of ReadReq miss ticks (Tick)
system.cpu.icache.ReadReq.missLatency::total    163814000                       # number of ReadReq miss ticks (Tick)
system.cpu.icache.ReadReq.accesses::cpu.inst    149926430                       # number of ReadReq accesses(hits+misses) (Count)
system.cpu.icache.ReadReq.accesses::total    149926430                       # number of ReadReq accesses(hits+misses) (Count)
system.cpu.icache.ReadReq.missRate::cpu.inst     0.000011                       # miss rate for ReadReq accesses (Ratio)
system.cpu.icache.ReadReq.missRate::total     0.000011                       # miss rate for ReadReq accesses (Ratio)
system.cpu.icache.ReadReq.avgMissLatency::cpu.inst 103679.746835                       # average ReadReq miss latency ((Tick/Count))
system.cpu.icache.ReadReq.avgMissLatency::total 103679.746835                       # average ReadReq miss latency ((Tick/Count))
system.cpu.icache.ReadReq.mshrMisses::cpu.inst         1580                       # number of ReadReq MSHR misses (Count)
system.cpu.icache.ReadReq.mshrMisses::total         1580                       # number of ReadReq MSHR misses (Count)
system.cpu.icache.ReadReq.mshrMissLatency::cpu.inst    160654000                       # number of ReadReq MSHR miss ticks (Tick)
system.cpu.icache.ReadReq.mshrMissLatency::total    160654000                       # number of ReadReq MSHR miss ticks (Tick)
system.cpu.icache.ReadReq.mshrMissRate::cpu.inst     0.000011                       # mshr miss rate for ReadReq accesses (Ratio)
system.cpu.icache.ReadReq.mshrMissRate::total     0.000011                       # mshr miss rate for ReadReq accesses (Ratio)
system.cpu.icache.ReadReq.avgMshrMissLatency::cpu.inst 101679.746835                       # average ReadReq mshr miss latency ((Tick/Count))
system.cpu.icache.ReadReq.avgMshrMissLatency::total 101679.746835                       # average ReadReq mshr miss latency ((Tick/Count))
system.cpu.icache.power_state.pwrStateResidencyTicks::UNDEFINED 555330100000                       # Cumulative time (in ticks) in various power states (Tick)
system.cpu.icache.tags.tagsInUse           850.975180                       # Average ticks per tags in use ((Tick/Count))
system.cpu.icache.tags.totalRefs            149926430                       # Total number of references to valid blocks. (Count)
system.cpu.icache.tags.sampledRefs               1580                       # Sample count of references to valid blocks. (Count)
system.cpu.icache.tags.avgRefs           94890.145570                       # Average number of references to valid blocks. ((Count/Count))
system.cpu.icache.tags.warmupTick              107000                       # The tick when the warmup percentage was hit. (Tick)
system.cpu.icache.tags.occupancies::cpu.inst   850.975180                       # Average occupied blocks per tick, per requestor ((Count/Tick))
system.cpu.icache.tags.avgOccs::cpu.inst     0.831030                       # Average percentage of cache occupancy ((Ratio/Tick))
system.cpu.icache.tags.avgOccs::total        0.831030                       # Average percentage of cache occupancy ((Ratio/Tick))
system.cpu.icache.tags.occupanciesTaskId::1024          909                       # Occupied blocks per task id (Count)
system.cpu.icache.tags.ageTaskId_1024::0           50                       # Occupied blocks per task id, per block age (Count)
system.cpu.icache.tags.ageTaskId_1024::1           59                       # Occupied blocks per task id, per block age (Count)
system.cpu.icache.tags.ageTaskId_1024::2            9                       # Occupied blocks per task id, per block age (Count)
system.cpu.icache.tags.ageTaskId_1024::4          791                       # Occupied blocks per task id, per block age (Count)
system.cpu.icache.tags.ratioOccsTaskId::1024     0.887695                       # Ratio of occupied blocks and all blocks, per task id (Ratio)
system.cpu.icache.tags.tagAccesses          299854440                       # Number of tag accesses (Count)
system.cpu.icache.tags.dataAccesses         299854440                       # Number of data accesses (Count)
system.cpu.icache.tags.power_state.pwrStateResidencyTicks::UNDEFINED 555330100000                       # Cumulative time (in ticks) in various power states (Tick)
system.cpu.interrupts.clk_domain.clock          16000                       # Clock period in ticks (Tick)
system.cpu.mmu.dtb.rdAccesses                43973759                       # TLB accesses on read requests (Count)
system.cpu.mmu.dtb.wrAccesses                 9140526                       # TLB accesses on write requests (Count)
system.cpu.mmu.dtb.rdMisses                    613143                       # TLB misses on read requests (Count)
system.cpu.mmu.dtb.wrMisses                      1126                       # TLB misses on write requests (Count)
system.cpu.mmu.dtb.walker.power_state.pwrStateResidencyTicks::UNDEFINED 555330100000                       # Cumulative time (in ticks) in various power states (Tick)
system.cpu.mmu.itb.rdAccesses                       0                       # TLB accesses on read requests (Count)
system.cpu.mmu.itb.wrAccesses               149926501                       # TLB accesses on write requests (Count)
system.cpu.mmu.itb.rdMisses                         0                       # TLB misses on read requests (Count)
system.cpu.mmu.itb.wrMisses                       244                       # TLB misses on write requests (Count)
system.cpu.mmu.itb.walker.power_state.pwrStateResidencyTicks::UNDEFINED 555330100000                       # Cumulative time (in ticks) in various power states (Tick)
system.cpu.power_state.pwrStateResidencyTicks::ON 555330100000                       # Cumulative time (in ticks) in various power states (Tick)
system.cpu.thread_0.numInsts                        0                       # Number of Instructions committed (Count)
system.cpu.thread_0.numOps                          0                       # Number of Ops committed (Count)
system.cpu.thread_0.numMemRefs                      0                       # Number of Memory References (Count)
system.cpu.workload.numSyscalls                    77                       # Number of system calls (Count)
system.l2bus.transDist::ReadResp              1473110                       # Transaction distribution (Count)
system.l2bus.transDist::WritebackDirty         311798                       # Transaction distribution (Count)
system.l2bus.transDist::CleanEvict            2822681                       # Transaction distribution (Count)
system.l2bus.transDist::ReadExReq               28084                       # Transaction distribution (Count)
system.l2bus.transDist::ReadExResp              28084                       # Transaction distribution (Count)
system.l2bus.transDist::ReadSharedReq         1473110                       # Transaction distribution (Count)
system.l2bus.pktCount_system.cpu.icache.mem_side_port::system.l2cache.cpu_side_port         3831                       # Packet count per connected requestor and responder (Count)
system.l2bus.pktCount_system.cpu.dcache.mem_side_port::system.l2cache.cpu_side_port      4497818                       # Packet count per connected requestor and responder (Count)
system.l2bus.pktCount::total                  4501649                       # Packet count per connected requestor and responder (Count)
system.l2bus.pktSize_system.cpu.icache.mem_side_port::system.l2cache.cpu_side_port       101120                       # Cumulative packet size per connected requestor and responder (Byte)
system.l2bus.pktSize_system.cpu.dcache.mem_side_port::system.l2cache.cpu_side_port    105972032                       # Cumulative packet size per connected requestor and responder (Byte)
system.l2bus.pktSize::total                 106073152                       # Cumulative packet size per connected requestor and responder (Byte)
system.l2bus.snoops                           1635218                       # Total snoops (Count)
system.l2bus.snoopTraffic                     9958336                       # Total snoop traffic (Byte)
system.l2bus.snoopFanout::samples             3136412                       # Request fanout histogram (Count)
system.l2bus.snoopFanout::mean               0.249285                       # Request fanout histogram (Count)
system.l2bus.snoopFanout::stdev              0.432599                       # Request fanout histogram (Count)
system.l2bus.snoopFanout::underflows                0      0.00%      0.00% # Request fanout histogram (Count)
system.l2bus.snoopFanout::0                   2354552     75.07%     75.07% # Request fanout histogram (Count)
system.l2bus.snoopFanout::1                    781860     24.93%    100.00% # Request fanout histogram (Count)
system.l2bus.snoopFanout::2                         0      0.00%    100.00% # Request fanout histogram (Count)
system.l2bus.snoopFanout::overflows                 0      0.00%    100.00% # Request fanout histogram (Count)
system.l2bus.snoopFanout::min_value                 0                       # Request fanout histogram (Count)
system.l2bus.snoopFanout::max_value                 1                       # Request fanout histogram (Count)
system.l2bus.snoopFanout::total               3136412                       # Request fanout histogram (Count)
system.l2bus.power_state.pwrStateResidencyTicks::UNDEFINED 555330100000                       # Cumulative time (in ticks) in various power states (Tick)
system.l2bus.reqLayer0.occupancy           3312853000                       # Layer occupancy (ticks) (Tick)
system.l2bus.reqLayer0.utilization                0.0                       # Layer utilization (Ratio)
system.l2bus.respLayer0.occupancy             4740000                       # Layer occupancy (ticks) (Tick)
system.l2bus.respLayer0.utilization               0.0                       # Layer utilization (Ratio)
system.l2bus.respLayer1.occupancy          4498842000                       # Layer occupancy (ticks) (Tick)
system.l2bus.respLayer1.utilization               0.0                       # Layer utilization (Ratio)
system.l2bus.snoop_filter.totRequests         3000455                       # Total number of requests made to the snoop filter. (Count)
system.l2bus.snoop_filter.hitSingleRequests      1499261                       # Number of requests hitting in the snoop filter with a single holder of the requested data. (Count)
system.l2bus.snoop_filter.hitMultiRequests            0                       # Number of requests hitting in the snoop filter with multiple (>1) holders of the requested data. (Count)
system.l2bus.snoop_filter.totSnoops            781860                       # Total number of snoops made to the snoop filter. (Count)
system.l2bus.snoop_filter.hitSingleSnoops       781860                       # Number of snoops hitting in the snoop filter with a single holder of the requested data. (Count)
system.l2bus.snoop_filter.hitMultiSnoops            0                       # Number of snoops hitting in the snoop filter with multiple (>1) holders of the requested data. (Count)
system.l2cache.demandHits::cpu.inst                16                       # number of demand (read+write) hits (Count)
system.l2cache.demandHits::cpu.data               933                       # number of demand (read+write) hits (Count)
system.l2cache.demandHits::total                  949                       # number of demand (read+write) hits (Count)
system.l2cache.overallHits::cpu.inst               16                       # number of overall hits (Count)
system.l2cache.overallHits::cpu.data              933                       # number of overall hits (Count)
system.l2cache.overallHits::total                 949                       # number of overall hits (Count)
system.l2cache.demandMisses::cpu.inst            1564                       # number of demand (read+write) misses (Count)
system.l2cache.demandMisses::cpu.data         1498681                       # number of demand (read+write) misses (Count)
system.l2cache.demandMisses::total            1500245                       # number of demand (read+write) misses (Count)
system.l2cache.overallMisses::cpu.inst           1564                       # number of overall misses (Count)
system.l2cache.overallMisses::cpu.data        1498681                       # number of overall misses (Count)
system.l2cache.overallMisses::total           1500245                       # number of overall misses (Count)
system.l2cache.demandMissLatency::cpu.inst    155566000                       # number of demand (read+write) miss ticks (Tick)
system.l2cache.demandMissLatency::cpu.data 144570059000                       # number of demand (read+write) miss ticks (Tick)
system.l2cache.demandMissLatency::total  144725625000                       # number of demand (read+write) miss ticks (Tick)
system.l2cache.overallMissLatency::cpu.inst    155566000                       # number of overall miss ticks (Tick)
system.l2cache.overallMissLatency::cpu.data 144570059000                       # number of overall miss ticks (Tick)
system.l2cache.overallMissLatency::total 144725625000                       # number of overall miss ticks (Tick)
system.l2cache.demandAccesses::cpu.inst          1580                       # number of demand (read+write) accesses (Count)
system.l2cache.demandAccesses::cpu.data       1499614                       # number of demand (read+write) accesses (Count)
system.l2cache.demandAccesses::total          1501194                       # number of demand (read+write) accesses (Count)
system.l2cache.overallAccesses::cpu.inst         1580                       # number of overall (read+write) accesses (Count)
system.l2cache.overallAccesses::cpu.data      1499614                       # number of overall (read+write) accesses (Count)
system.l2cache.overallAccesses::total         1501194                       # number of overall (read+write) accesses (Count)
system.l2cache.demandMissRate::cpu.inst      0.989873                       # miss rate for demand accesses (Ratio)
system.l2cache.demandMissRate::cpu.data      0.999378                       # miss rate for demand accesses (Ratio)
system.l2cache.demandMissRate::total         0.999368                       # miss rate for demand accesses (Ratio)
system.l2cache.overallMissRate::cpu.inst     0.989873                       # miss rate for overall accesses (Ratio)
system.l2cache.overallMissRate::cpu.data     0.999378                       # miss rate for overall accesses (Ratio)
system.l2cache.overallMissRate::total        0.999368                       # miss rate for overall accesses (Ratio)
system.l2cache.demandAvgMissLatency::cpu.inst 99466.751918                       # average overall miss latency in ticks ((Tick/Count))
system.l2cache.demandAvgMissLatency::cpu.data 96464.864104                       # average overall miss latency in ticks ((Tick/Count))
system.l2cache.demandAvgMissLatency::total 96467.993561                       # average overall miss latency in ticks ((Tick/Count))
system.l2cache.overallAvgMissLatency::cpu.inst 99466.751918                       # average overall miss latency ((Tick/Count))
system.l2cache.overallAvgMissLatency::cpu.data 96464.864104                       # average overall miss latency ((Tick/Count))
system.l2cache.overallAvgMissLatency::total 96467.993561                       # average overall miss latency ((Tick/Count))
system.l2cache.blockedCycles::no_mshrs              0                       # number of cycles access was blocked (Cycle)
system.l2cache.blockedCycles::no_targets            0                       # number of cycles access was blocked (Cycle)
system.l2cache.blockedCauses::no_mshrs              0                       # number of times access was blocked (Count)
system.l2cache.blockedCauses::no_targets            0                       # number of times access was blocked (Count)
system.l2cache.avgBlocked::no_mshrs               nan                       # average number of cycles each access was blocked ((Cycle/Count))
system.l2cache.avgBlocked::no_targets             nan                       # average number of cycles each access was blocked ((Cycle/Count))
system.l2cache.writebacks::writebacks          155599                       # number of writebacks (Count)
system.l2cache.writebacks::total               155599                       # number of writebacks (Count)
system.l2cache.demandMshrMisses::cpu.inst         1564                       # number of demand (read+write) MSHR misses (Count)
system.l2cache.demandMshrMisses::cpu.data      1498681                       # number of demand (read+write) MSHR misses (Count)
system.l2cache.demandMshrMisses::total        1500245                       # number of demand (read+write) MSHR misses (Count)
system.l2cache.overallMshrMisses::cpu.inst         1564                       # number of overall MSHR misses (Count)
system.l2cache.overallMshrMisses::cpu.data      1498681                       # number of overall MSHR misses (Count)
system.l2cache.overallMshrMisses::total       1500245                       # number of overall MSHR misses (Count)
system.l2cache.demandMshrMissLatency::cpu.inst    124286000                       # number of demand (read+write) MSHR miss ticks (Tick)
system.l2cache.demandMshrMissLatency::cpu.data 114596439000                       # number of demand (read+write) MSHR miss ticks (Tick)
system.l2cache.demandMshrMissLatency::total 114720725000                       # number of demand (read+write) MSHR miss ticks (Tick)
system.l2cache.overallMshrMissLatency::cpu.inst    124286000                       # number of overall MSHR miss ticks (Tick)
system.l2cache.overallMshrMissLatency::cpu.data 114596439000                       # number of overall MSHR miss ticks (Tick)
system.l2cache.overallMshrMissLatency::total 114720725000                       # number of overall MSHR miss ticks (Tick)
system.l2cache.demandMshrMissRate::cpu.inst     0.989873                       # mshr miss ratio for demand accesses (Ratio)
system.l2cache.demandMshrMissRate::cpu.data     0.999378                       # mshr miss ratio for demand accesses (Ratio)
system.l2cache.demandMshrMissRate::total     0.999368                       # mshr miss ratio for demand accesses (Ratio)
system.l2cache.overallMshrMissRate::cpu.inst     0.989873                       # mshr miss ratio for overall accesses (Ratio)
system.l2cache.overallMshrMissRate::cpu.data     0.999378                       # mshr miss ratio for overall accesses (Ratio)
system.l2cache.overallMshrMissRate::total     0.999368                       # mshr miss ratio for overall accesses (Ratio)
system.l2cache.demandAvgMshrMissLatency::cpu.inst 79466.751918                       # average overall mshr miss latency ((Tick/Count))
system.l2cache.demandAvgMshrMissLatency::cpu.data 76464.864104                       # average overall mshr miss latency ((Tick/Count))
system.l2cache.demandAvgMshrMissLatency::total 76467.993561                       # average overall mshr miss latency ((Tick/Count))
system.l2cache.overallAvgMshrMissLatency::cpu.inst 79466.751918                       # average overall mshr miss latency ((Tick/Count))
system.l2cache.overallAvgMshrMissLatency::cpu.data 76464.864104                       # average overall mshr miss latency ((Tick/Count))
system.l2cache.overallAvgMshrMissLatency::total 76467.993561                       # average overall mshr miss latency ((Tick/Count))
system.l2cache.replacements                   1635218                       # number of replacements (Count)
system.l2cache.CleanEvict.mshrMisses::writebacks       643986                       # number of CleanEvict MSHR misses (Count)
system.l2cache.CleanEvict.mshrMisses::total       643986                       # number of CleanEvict MSHR misses (Count)
system.l2cache.CleanEvict.mshrMissRate::writebacks          inf                       # mshr miss rate for CleanEvict accesses (Ratio)
system.l2cache.CleanEvict.mshrMissRate::total          inf                       # mshr miss rate for CleanEvict accesses (Ratio)
system.l2cache.ReadExReq.hits::cpu.data           165                       # number of ReadExReq hits (Count)
system.l2cache.ReadExReq.hits::total              165                       # number of ReadExReq hits (Count)
system.l2cache.ReadExReq.misses::cpu.data        27919                       # number of ReadExReq misses (Count)
system.l2cache.ReadExReq.misses::total          27919                       # number of ReadExReq misses (Count)
system.l2cache.ReadExReq.missLatency::cpu.data   2704271000                       # number of ReadExReq miss ticks (Tick)
system.l2cache.ReadExReq.missLatency::total   2704271000                       # number of ReadExReq miss ticks (Tick)
system.l2cache.ReadExReq.accesses::cpu.data        28084                       # number of ReadExReq accesses(hits+misses) (Count)
system.l2cache.ReadExReq.accesses::total        28084                       # number of ReadExReq accesses(hits+misses) (Count)
system.l2cache.ReadExReq.missRate::cpu.data     0.994125                       # miss rate for ReadExReq accesses (Ratio)
system.l2cache.ReadExReq.missRate::total     0.994125                       # miss rate for ReadExReq accesses (Ratio)
system.l2cache.ReadExReq.avgMissLatency::cpu.data 96861.313084                       # average ReadExReq miss latency ((Tick/Count))
system.l2cache.ReadExReq.avgMissLatency::total 96861.313084                       # average ReadExReq miss latency ((Tick/Count))
system.l2cache.ReadExReq.mshrMisses::cpu.data        27919                       # number of ReadExReq MSHR misses (Count)
system.l2cache.ReadExReq.mshrMisses::total        27919                       # number of ReadExReq MSHR misses (Count)
system.l2cache.ReadExReq.mshrMissLatency::cpu.data   2145891000                       # number of ReadExReq MSHR miss ticks (Tick)
system.l2cache.ReadExReq.mshrMissLatency::total   2145891000                       # number of ReadExReq MSHR miss ticks (Tick)
system.l2cache.ReadExReq.mshrMissRate::cpu.data     0.994125                       # mshr miss rate for ReadExReq accesses (Ratio)
system.l2cache.ReadExReq.mshrMissRate::total     0.994125                       # mshr miss rate for ReadExReq accesses (Ratio)
system.l2cache.ReadExReq.avgMshrMissLatency::cpu.data 76861.313084                       # average ReadExReq mshr miss latency ((Tick/Count))
system.l2cache.ReadExReq.avgMshrMissLatency::total 76861.313084                       # average ReadExReq mshr miss latency ((Tick/Count))
system.l2cache.ReadSharedReq.hits::cpu.inst           16                       # number of ReadSharedReq hits (Count)
system.l2cache.ReadSharedReq.hits::cpu.data          768                       # number of ReadSharedReq hits (Count)
system.l2cache.ReadSharedReq.hits::total          784                       # number of ReadSharedReq hits (Count)
system.l2cache.ReadSharedReq.misses::cpu.inst         1564                       # number of ReadSharedReq misses (Count)
system.l2cache.ReadSharedReq.misses::cpu.data      1470762                       # number of ReadSharedReq misses (Count)
system.l2cache.ReadSharedReq.misses::total      1472326                       # number of ReadSharedReq misses (Count)
system.l2cache.ReadSharedReq.missLatency::cpu.inst    155566000                       # number of ReadSharedReq miss ticks (Tick)
system.l2cache.ReadSharedReq.missLatency::cpu.data 141865788000                       # number of ReadSharedReq miss ticks (Tick)
system.l2cache.ReadSharedReq.missLatency::total 142021354000                       # number of ReadSharedReq miss ticks (Tick)
system.l2cache.ReadSharedReq.accesses::cpu.inst         1580                       # number of ReadSharedReq accesses(hits+misses) (Count)
system.l2cache.ReadSharedReq.accesses::cpu.data      1471530                       # number of ReadSharedReq accesses(hits+misses) (Count)
system.l2cache.ReadSharedReq.accesses::total      1473110                       # number of ReadSharedReq accesses(hits+misses) (Count)
system.l2cache.ReadSharedReq.missRate::cpu.inst     0.989873                       # miss rate for ReadSharedReq accesses (Ratio)
system.l2cache.ReadSharedReq.missRate::cpu.data     0.999478                       # miss rate for ReadSharedReq accesses (Ratio)
system.l2cache.ReadSharedReq.missRate::total     0.999468                       # miss rate for ReadSharedReq accesses (Ratio)
system.l2cache.ReadSharedReq.avgMissLatency::cpu.inst 99466.751918                       # average ReadSharedReq miss latency ((Tick/Count))
system.l2cache.ReadSharedReq.avgMissLatency::cpu.data 96457.338441                       # average ReadSharedReq miss latency ((Tick/Count))
system.l2cache.ReadSharedReq.avgMissLatency::total 96460.535235                       # average ReadSharedReq miss latency ((Tick/Count))
system.l2cache.ReadSharedReq.mshrMisses::cpu.inst         1564                       # number of ReadSharedReq MSHR misses (Count)
system.l2cache.ReadSharedReq.mshrMisses::cpu.data      1470762                       # number of ReadSharedReq MSHR misses (Count)
system.l2cache.ReadSharedReq.mshrMisses::total      1472326                       # number of ReadSharedReq MSHR misses (Count)
system.l2cache.ReadSharedReq.mshrMissLatency::cpu.inst    124286000                       # number of ReadSharedReq MSHR miss ticks (Tick)
system.l2cache.ReadSharedReq.mshrMissLatency::cpu.data 112450548000                       # number of ReadSharedReq MSHR miss ticks (Tick)
system.l2cache.ReadSharedReq.mshrMissLatency::total 112574834000                       # number of ReadSharedReq MSHR miss ticks (Tick)
system.l2cache.ReadSharedReq.mshrMissRate::cpu.inst     0.989873                       # mshr miss rate for ReadSharedReq accesses (Ratio)
system.l2cache.ReadSharedReq.mshrMissRate::cpu.data     0.999478                       # mshr miss rate for ReadSharedReq accesses (Ratio)
system.l2cache.ReadSharedReq.mshrMissRate::total     0.999468                       # mshr miss rate for ReadSharedReq accesses (Ratio)
system.l2cache.ReadSharedReq.avgMshrMissLatency::cpu.inst 79466.751918                       # average ReadSharedReq mshr miss latency ((Tick/Count))
system.l2cache.ReadSharedReq.avgMshrMissLatency::cpu.data 76457.338441                       # average ReadSharedReq mshr miss latency ((Tick/Count))
system.l2cache.ReadSharedReq.avgMshrMissLatency::total 76460.535235                       # average ReadSharedReq mshr miss latency ((Tick/Count))
system.l2cache.WritebackDirty.hits::writebacks       156199                       # number of WritebackDirty hits (Count)
system.l2cache.WritebackDirty.hits::total       156199                       # number of WritebackDirty hits (Count)
system.l2cache.WritebackDirty.accesses::writebacks       156199                       # number of WritebackDirty accesses(hits+misses) (Count)
system.l2cache.WritebackDirty.accesses::total       156199                       # number of WritebackDirty accesses(hits+misses) (Count)
system.l2cache.power_state.pwrStateResidencyTicks::UNDEFINED 555330100000                       # Cumulative time (in ticks) in various power states (Tick)
system.l2cache.tags.tagsInUse             2046.770607                       # Average ticks per tags in use ((Tick/Count))
system.l2cache.tags.totalRefs                 2356469                       # Total number of references to valid blocks. (Count)
system.l2cache.tags.sampledRefs               1637266                       # Sample count of references to valid blocks. (Count)
system.l2cache.tags.avgRefs                  1.439271                       # Average number of references to valid blocks. ((Count/Count))
system.l2cache.tags.warmupTick                  86000                       # The tick when the warmup percentage was hit. (Tick)
system.l2cache.tags.occupancies::writebacks   495.253153                       # Average occupied blocks per tick, per requestor ((Count/Tick))
system.l2cache.tags.occupancies::cpu.inst    11.162375                       # Average occupied blocks per tick, per requestor ((Count/Tick))
system.l2cache.tags.occupancies::cpu.data  1540.355079                       # Average occupied blocks per tick, per requestor ((Count/Tick))
system.l2cache.tags.avgOccs::writebacks      0.241823                       # Average percentage of cache occupancy ((Ratio/Tick))
system.l2cache.tags.avgOccs::cpu.inst        0.005450                       # Average percentage of cache occupancy ((Ratio/Tick))
system.l2cache.tags.avgOccs::cpu.data        0.752127                       # Average percentage of cache occupancy ((Ratio/Tick))
system.l2cache.tags.avgOccs::total           0.999400                       # Average percentage of cache occupancy ((Ratio/Tick))
system.l2cache.tags.occupanciesTaskId::1024         2048                       # Occupied blocks per task id (Count)
system.l2cache.tags.ageTaskId_1024::0              73                       # Occupied blocks per task id, per block age (Count)
system.l2cache.tags.ageTaskId_1024::1             160                       # Occupied blocks per task id, per block age (Count)
system.l2cache.tags.ageTaskId_1024::2             422                       # Occupied blocks per task id, per block age (Count)
system.l2cache.tags.ageTaskId_1024::3             385                       # Occupied blocks per task id, per block age (Count)
system.l2cache.tags.ageTaskId_1024::4            1008                       # Occupied blocks per task id, per block age (Count)
system.l2cache.tags.ratioOccsTaskId::1024            1                       # Ratio of occupied blocks and all blocks, per task id (Ratio)
system.l2cache.tags.tagAccesses               7638176                       # Number of tag accesses (Count)
system.l2cache.tags.dataAccesses              7638176                       # Number of data accesses (Count)
system.l2cache.tags.power_state.pwrStateResidencyTicks::UNDEFINED 555330100000                       # Cumulative time (in ticks) in various power states (Tick)
system.mem_ctrl.avgPriority_writebacks::samples    155592.00                       # Average QoS priority value for accepted requests (Count)
system.mem_ctrl.avgPriority_cpu.inst::samples      1564.00                       # Average QoS priority value for accepted requests (Count)
system.mem_ctrl.avgPriority_cpu.data::samples   1479812.00                       # Average QoS priority value for accepted requests (Count)
system.mem_ctrl.priorityMinLatency       0.000000018750                       # per QoS priority minimum request to response latency (Second)
system.mem_ctrl.priorityMaxLatency       0.015783562500                       # per QoS priority maximum request to response latency (Second)
system.mem_ctrl.numReadWriteTurnArounds          8644                       # Number of turnarounds from READ to WRITE (Count)
system.mem_ctrl.numWriteReadTurnArounds          8644                       # Number of turnarounds from WRITE to READ (Count)
system.mem_ctrl.numStayReadState              3259996                       # Number of times bus staying in READ state (Count)
system.mem_ctrl.numStayWriteState              147482                       # Number of times bus staying in WRITE state (Count)
system.mem_ctrl.readReqs                      1500245                       # Number of read requests accepted (Count)
system.mem_ctrl.writeReqs                      155599                       # Number of write requests accepted (Count)
system.mem_ctrl.readBursts                    1500245                       # Number of controller read bursts, including those serviced by the write queue (Count)
system.mem_ctrl.writeBursts                    155599                       # Number of controller write bursts, including those merged in the write queue (Count)
system.mem_ctrl.servicedByWrQ                   18869                       # Number of controller read bursts serviced by the write queue (Count)
system.mem_ctrl.mergedWrBursts                      7                       # Number of controller write bursts merged with an existing one (Count)
system.mem_ctrl.neitherReadNorWriteReqs             0                       # Number of requests that are neither read nor write (Count)
system.mem_ctrl.avgRdQLen                        1.00                       # Average read queue length when enqueuing ((Count/Tick))
system.mem_ctrl.avgWrQLen                       24.50                       # Average write queue length when enqueuing ((Count/Tick))
system.mem_ctrl.numRdRetry                          0                       # Number of times read queue was full causing retry (Count)
system.mem_ctrl.numWrRetry                          0                       # Number of times write queue was full causing retry (Count)
system.mem_ctrl.readPktSize::0                      0                       # Read request sizes (log2) (Count)
system.mem_ctrl.readPktSize::1                      0                       # Read request sizes (log2) (Count)
system.mem_ctrl.readPktSize::2                      0                       # Read request sizes (log2) (Count)
system.mem_ctrl.readPktSize::3                      0                       # Read request sizes (log2) (Count)
system.mem_ctrl.readPktSize::4                      0                       # Read request sizes (log2) (Count)
system.mem_ctrl.readPktSize::5                      0                       # Read request sizes (log2) (Count)
system.mem_ctrl.readPktSize::6                1500245                       # Read request sizes (log2) (Count)
system.mem_ctrl.writePktSize::0                     0                       # Write request sizes (log2) (Count)
system.mem_ctrl.writePktSize::1                     0                       # Write request sizes (log2) (Count)
system.mem_ctrl.writePktSize::2                     0                       # Write request sizes (log2) (Count)
system.mem_ctrl.writePktSize::3                     0                       # Write request sizes (log2) (Count)
system.mem_ctrl.writePktSize::4                     0                       # Write request sizes (log2) (Count)
system.mem_ctrl.writePktSize::5                     0                       # Write request sizes (log2) (Count)
system.mem_ctrl.writePktSize::6                155599                       # Write request sizes (log2) (Count)
system.mem_ctrl.rdQLenPdf::0                  1481374                       # What read queue length does an incoming req see (Count)
system.mem_ctrl.rdQLenPdf::1                        2                       # What read queue length does an incoming req see (Count)
system.mem_ctrl.rdQLenPdf::2                        0                       # What read queue length does an incoming req see (Count)
system.mem_ctrl.rdQLenPdf::3                        0                       # What read queue length does an incoming req see (Count)
system.mem_ctrl.rdQLenPdf::4                        0                       # What read queue length does an incoming req see (Count)
system.mem_ctrl.rdQLenPdf::5                        0                       # What read queue length does an incoming req see (Count)
system.mem_ctrl.rdQLenPdf::6                        0                       # What read queue length does an incoming req see (Count)
system.mem_ctrl.rdQLenPdf::7                        0                       # What read queue length does an incoming req see (Count)
system.mem_ctrl.rdQLenPdf::8                        0                       # What read queue length does an incoming req see (Count)
system.mem_ctrl.rdQLenPdf::9                        0                       # What read queue length does an incoming req see (Count)
system.mem_ctrl.rdQLenPdf::10                       0                       # What read queue length does an incoming req see (Count)
system.mem_ctrl.rdQLenPdf::11                       0                       # What read queue length does an incoming req see (Count)
system.mem_ctrl.rdQLenPdf::12                       0                       # What read queue length does an incoming req see (Count)
system.mem_ctrl.rdQLenPdf::13                       0                       # What read queue length does an incoming req see (Count)
system.mem_ctrl.rdQLenPdf::14                       0                       # What read queue length does an incoming req see (Count)
system.mem_ctrl.rdQLenPdf::15                       0                       # What read queue length does an incoming req see (Count)
system.mem_ctrl.rdQLenPdf::16                       0                       # What read queue length does an incoming req see (Count)
system.mem_ctrl.rdQLenPdf::17                       0                       # What read queue length does an incoming req see (Count)
system.mem_ctrl.rdQLenPdf::18                       0                       # What read queue length does an incoming req see (Count)
system.mem_ctrl.rdQLenPdf::19                       0                       # What read queue length does an incoming req see (Count)
system.mem_ctrl.rdQLenPdf::20                       0                       # What read queue length does an incoming req see (Count)
system.mem_ctrl.rdQLenPdf::21                       0                       # What read queue length does an incoming req see (Count)
system.mem_ctrl.rdQLenPdf::22                       0                       # What read queue length does an incoming req see (Count)
system.mem_ctrl.rdQLenPdf::23                       0                       # What read queue length does an incoming req see (Count)
system.mem_ctrl.rdQLenPdf::24                       0                       # What read queue length does an incoming req see (Count)
system.mem_ctrl.rdQLenPdf::25                       0                       # What read queue length does an incoming req see (Count)
system.mem_ctrl.rdQLenPdf::26                       0                       # What read queue length does an incoming req see (Count)
system.mem_ctrl.rdQLenPdf::27                       0                       # What read queue length does an incoming req see (Count)
system.mem_ctrl.rdQLenPdf::28                       0                       # What read queue length does an incoming req see (Count)
system.mem_ctrl.rdQLenPdf::29                       0                       # What read queue length does an incoming req see (Count)
system.mem_ctrl.rdQLenPdf::30                       0                       # What read queue length does an incoming req see (Count)
system.mem_ctrl.rdQLenPdf::31                       0                       # What read queue length does an incoming req see (Count)
system.mem_ctrl.wrQLenPdf::0                        1                       # What write queue length does an incoming req see (Count)
system.mem_ctrl.wrQLenPdf::1                        1                       # What write queue length does an incoming req see (Count)
system.mem_ctrl.wrQLenPdf::2                        1                       # What write queue length does an incoming req see (Count)
system.mem_ctrl.wrQLenPdf::3                        1                       # What write queue length does an incoming req see (Count)
system.mem_ctrl.wrQLenPdf::4                        1                       # What write queue length does an incoming req see (Count)
system.mem_ctrl.wrQLenPdf::5                        1                       # What write queue length does an incoming req see (Count)
system.mem_ctrl.wrQLenPdf::6                        1                       # What write queue length does an incoming req see (Count)
system.mem_ctrl.wrQLenPdf::7                        1                       # What write queue length does an incoming req see (Count)
system.mem_ctrl.wrQLenPdf::8                        1                       # What write queue length does an incoming req see (Count)
system.mem_ctrl.wrQLenPdf::9                        1                       # What write queue length does an incoming req see (Count)
system.mem_ctrl.wrQLenPdf::10                       1                       # What write queue length does an incoming req see (Count)
system.mem_ctrl.wrQLenPdf::11                       1                       # What write queue length does an incoming req see (Count)
system.mem_ctrl.wrQLenPdf::12                       1                       # What write queue length does an incoming req see (Count)
system.mem_ctrl.wrQLenPdf::13                       1                       # What write queue length does an incoming req see (Count)
system.mem_ctrl.wrQLenPdf::14                       1                       # What write queue length does an incoming req see (Count)
system.mem_ctrl.wrQLenPdf::15                    8569                       # What write queue length does an incoming req see (Count)
system.mem_ctrl.wrQLenPdf::16                    8585                       # What write queue length does an incoming req see (Count)
[...]
system.mem_ctrl.dram.bytesWritten::total      9958336                       # Number of bytes written to this memory (Byte)
system.mem_ctrl.dram.numReads::cpu.inst          1564                       # Number of read requests responded to by this memory (Count)
system.mem_ctrl.dram.numReads::cpu.data       1498681                       # Number of read requests responded to by this memory (Count)
system.mem_ctrl.dram.numReads::total          1500245                       # Number of read requests responded to by this memory (Count)
system.mem_ctrl.dram.numWrites::writebacks       155599                       # Number of write requests responded to by this memory (Count)
system.mem_ctrl.dram.numWrites::total          155599                       # Number of write requests responded to by this memory (Count)
system.mem_ctrl.dram.bwRead::cpu.inst          180246                       # Total read bandwidth from this memory ((Byte/Second))
system.mem_ctrl.dram.bwRead::cpu.data       172718144                       # Total read bandwidth from this memory ((Byte/Second))
system.mem_ctrl.dram.bwRead::total          172898390                       # Total read bandwidth from this memory ((Byte/Second))
system.mem_ctrl.dram.bwInstRead::cpu.inst       180246                       # Instruction read bandwidth from this memory ((Byte/Second))
system.mem_ctrl.dram.bwInstRead::total         180246                       # Instruction read bandwidth from this memory ((Byte/Second))
system.mem_ctrl.dram.bwWrite::writebacks     17932282                       # Write bandwidth from this memory ((Byte/Second))
system.mem_ctrl.dram.bwWrite::total          17932282                       # Write bandwidth from this memory ((Byte/Second))
system.mem_ctrl.dram.bwTotal::writebacks     17932282                       # Total bandwidth to/from this memory ((Byte/Second))
system.mem_ctrl.dram.bwTotal::cpu.inst         180246                       # Total bandwidth to/from this memory ((Byte/Second))
system.mem_ctrl.dram.bwTotal::cpu.data      172718144                       # Total bandwidth to/from this memory ((Byte/Second))
system.mem_ctrl.dram.bwTotal::total         190830672                       # Total bandwidth to/from this memory ((Byte/Second))
system.mem_ctrl.dram.readBursts               1481376                       # Number of DRAM read bursts (Count)
system.mem_ctrl.dram.writeBursts               155571                       # Number of DRAM write bursts (Count)
system.mem_ctrl.dram.perBankRdBursts::0         94641                       # Per bank write bursts (Count)
system.mem_ctrl.dram.perBankRdBursts::1         98432                       # Per bank write bursts (Count)
system.mem_ctrl.dram.perBankRdBursts::2         98028                       # Per bank write bursts (Count)
system.mem_ctrl.dram.perBankRdBursts::3         94636                       # Per bank write bursts (Count)
system.mem_ctrl.dram.perBankRdBursts::4         92359                       # Per bank write bursts (Count)
system.mem_ctrl.dram.perBankRdBursts::5         92153                       # Per bank write bursts (Count)
system.mem_ctrl.dram.perBankRdBursts::6         90462                       # Per bank write bursts (Count)
system.mem_ctrl.dram.perBankRdBursts::7         89263                       # Per bank write bursts (Count)
system.mem_ctrl.dram.perBankRdBursts::8         90719                       # Per bank write bursts (Count)
system.mem_ctrl.dram.perBankRdBursts::9         91181                       # Per bank write bursts (Count)
system.mem_ctrl.dram.perBankRdBursts::10        90552                       # Per bank write bursts (Count)
system.mem_ctrl.dram.perBankRdBursts::11        91150                       # Per bank write bursts (Count)
system.mem_ctrl.dram.perBankRdBursts::12        93414                       # Per bank write bursts (Count)
system.mem_ctrl.dram.perBankRdBursts::13        92444                       # Per bank write bursts (Count)
system.mem_ctrl.dram.perBankRdBursts::14        91182                       # Per bank write bursts (Count)
system.mem_ctrl.dram.perBankRdBursts::15        90760                       # Per bank write bursts (Count)
system.mem_ctrl.dram.perBankWrBursts::0          9754                       # Per bank write bursts (Count)
system.mem_ctrl.dram.perBankWrBursts::1         10381                       # Per bank write bursts (Count)
system.mem_ctrl.dram.perBankWrBursts::2         10418                       # Per bank write bursts (Count)
system.mem_ctrl.dram.perBankWrBursts::3         10337                       # Per bank write bursts (Count)
system.mem_ctrl.dram.perBankWrBursts::4         10280                       # Per bank write bursts (Count)
system.mem_ctrl.dram.perBankWrBursts::5         10070                       # Per bank write bursts (Count)
system.mem_ctrl.dram.perBankWrBursts::6          9644                       # Per bank write bursts (Count)
system.mem_ctrl.dram.perBankWrBursts::7          9245                       # Per bank write bursts (Count)
system.mem_ctrl.dram.perBankWrBursts::8          9432                       # Per bank write bursts (Count)
system.mem_ctrl.dram.perBankWrBursts::9          9309                       # Per bank write bursts (Count)
system.mem_ctrl.dram.perBankWrBursts::10         9305                       # Per bank write bursts (Count)
system.mem_ctrl.dram.perBankWrBursts::11         9417                       # Per bank write bursts (Count)
system.mem_ctrl.dram.perBankWrBursts::12         9839                       # Per bank write bursts (Count)
system.mem_ctrl.dram.perBankWrBursts::13         9431                       # Per bank write bursts (Count)
system.mem_ctrl.dram.perBankWrBursts::14         9321                       # Per bank write bursts (Count)
system.mem_ctrl.dram.perBankWrBursts::15         9388                       # Per bank write bursts (Count)
system.mem_ctrl.dram.totQLat              10154921250                       # Total ticks spent queuing (Tick)
system.mem_ctrl.dram.totBusLat             7406880000                       # Total ticks spent in databus transfers (Tick)
system.mem_ctrl.dram.totMemAccLat         37930721250                       # Total ticks spent from burst creation until serviced by the DRAM (Tick)
system.mem_ctrl.dram.avgQLat                  6855.06                       # Average queueing delay per DRAM burst ((Tick/Count))
system.mem_ctrl.dram.avgBusLat                5000.00                       # Average bus latency per DRAM burst ((Tick/Count))
system.mem_ctrl.dram.avgMemAccLat            25605.06                       # Average memory access latency per DRAM burst ((Tick/Count))
system.mem_ctrl.dram.readRowHits              1099213                       # Number of row buffer hits during reads (Count)
system.mem_ctrl.dram.writeRowHits              133959                       # Number of row buffer hits during writes (Count)
system.mem_ctrl.dram.readRowHitRate             74.20                       # Row buffer hit rate for reads (Ratio)
system.mem_ctrl.dram.writeRowHitRate            86.11                       # Row buffer hit rate for writes (Ratio)
system.mem_ctrl.dram.bytesPerActivate::samples       403767                       # Bytes accessed per row activation (Byte)
system.mem_ctrl.dram.bytesPerActivate::mean   259.465603                       # Bytes accessed per row activation (Byte)
system.mem_ctrl.dram.bytesPerActivate::gmean   231.025831                       # Bytes accessed per row activation (Byte)
system.mem_ctrl.dram.bytesPerActivate::stdev   141.009889                       # Bytes accessed per row activation (Byte)
system.mem_ctrl.dram.bytesPerActivate::0-127        29586      7.33%      7.33% # Bytes accessed per row activation (Byte)
system.mem_ctrl.dram.bytesPerActivate::128-255        58485     14.48%     21.81% # Bytes accessed per row activation (Byte)
system.mem_ctrl.dram.bytesPerActivate::256-383       278946     69.09%     90.90% # Bytes accessed per row activation (Byte)
system.mem_ctrl.dram.bytesPerActivate::384-511        15048      3.73%     94.63% # Bytes accessed per row activation (Byte)
system.mem_ctrl.dram.bytesPerActivate::512-639        13606      3.37%     97.99% # Bytes accessed per row activation (Byte)
system.mem_ctrl.dram.bytesPerActivate::640-767          329      0.08%     98.08% # Bytes accessed per row activation (Byte)
system.mem_ctrl.dram.bytesPerActivate::768-895          346      0.09%     98.16% # Bytes accessed per row activation (Byte)
system.mem_ctrl.dram.bytesPerActivate::896-1023          501      0.12%     98.29% # Bytes accessed per row activation (Byte)
system.mem_ctrl.dram.bytesPerActivate::1024-1151         6920      1.71%    100.00% # Bytes accessed per row activation (Byte)
system.mem_ctrl.dram.bytesPerActivate::total       403767                       # Bytes accessed per row activation (Byte)
system.mem_ctrl.dram.dramBytesRead           94808064                       # Total bytes read (Byte)
system.mem_ctrl.dram.dramBytesWritten         9956544                       # Total bytes written (Byte)
system.mem_ctrl.dram.avgRdBW               170.723798                       # Average DRAM read bandwidth in MiBytes/s ((Byte/Second))
system.mem_ctrl.dram.avgWrBW                17.929055                       # Average DRAM write bandwidth in MiBytes/s ((Byte/Second))
system.mem_ctrl.dram.peakBW                  12800.00                       # Theoretical peak bandwidth in MiByte/s ((Byte/Second))
system.mem_ctrl.dram.busUtil                     1.47                       # Data bus utilization in percentage (Ratio)
system.mem_ctrl.dram.busUtilRead                 1.33                       # Data bus utilization in percentage for reads (Ratio)
system.mem_ctrl.dram.busUtilWrite                0.14                       # Data bus utilization in percentage for writes (Ratio)
system.mem_ctrl.dram.pageHitRate                75.33                       # Row buffer hit rate, read and write combined (Ratio)
system.mem_ctrl.dram.power_state.pwrStateResidencyTicks::UNDEFINED 555330100000                       # Cumulative time (in ticks) in various power states (Tick)
system.mem_ctrl.dram.rank0.actEnergy       1467484200                       # Energy for activate commands per rank (pJ) (Joule)
system.mem_ctrl.dram.rank0.preEnergy        779971170                       # Energy for precharge commands per rank (pJ) (Joule)
system.mem_ctrl.dram.rank0.readEnergy      5354814360                       # Energy for read commands per rank (pJ) (Joule)
system.mem_ctrl.dram.rank0.writeEnergy      418273380                       # Energy for write commands per rank (pJ) (Joule)
system.mem_ctrl.dram.rank0.refreshEnergy 43836739440.000008                       # Energy for refresh commands per rank (pJ) (Joule)
system.mem_ctrl.dram.rank0.actBackEnergy 158960531250                       # Energy for active background per rank (pJ) (Joule)
system.mem_ctrl.dram.rank0.preBackEnergy  79385258400                       # Energy for precharge background per rank (pJ) (Joule)
system.mem_ctrl.dram.rank0.actPowerDownEnergy            0                       # Energy for active power-down per rank (pJ) (Joule)
system.mem_ctrl.dram.rank0.prePowerDownEnergy            0                       # Energy for precharge power-down per rank (pJ) (Joule)
system.mem_ctrl.dram.rank0.selfRefreshEnergy            0                       # Energy for self refresh per rank (pJ) (Joule)
system.mem_ctrl.dram.rank0.totalEnergy   290203072200                       # Total energy per rank (pJ) (Joule)
system.mem_ctrl.dram.rank0.averagePower    522.577602                       # Core power per rank (mW) (Watt)
system.mem_ctrl.dram.rank0.totalIdleTime            0                       # Total Idle time Per DRAM Rank (Tick)
system.mem_ctrl.dram.rank0.pwrStateTime::IDLE 204909628000                       # Time in different power states (Tick)
system.mem_ctrl.dram.rank0.pwrStateTime::REF  18543460000                       # Time in different power states (Tick)
system.mem_ctrl.dram.rank0.pwrStateTime::SREF            0                       # Time in different power states (Tick)
system.mem_ctrl.dram.rank0.pwrStateTime::PRE_PDN            0                       # Time in different power states (Tick)
system.mem_ctrl.dram.rank0.pwrStateTime::ACT 331877012000                       # Time in different power states (Tick)
system.mem_ctrl.dram.rank0.pwrStateTime::ACT_PDN            0                       # Time in different power states (Tick)
system.mem_ctrl.dram.rank1.actEnergy       1415469300                       # Energy for activate commands per rank (pJ) (Joule)
system.mem_ctrl.dram.rank1.preEnergy        752324595                       # Energy for precharge commands per rank (pJ) (Joule)
system.mem_ctrl.dram.rank1.readEnergy      5222210280                       # Energy for read commands per rank (pJ) (Joule)
system.mem_ctrl.dram.rank1.writeEnergy      393807240                       # Energy for write commands per rank (pJ) (Joule)
system.mem_ctrl.dram.rank1.refreshEnergy 43836739440.000008                       # Energy for refresh commands per rank (pJ) (Joule)
system.mem_ctrl.dram.rank1.actBackEnergy 154671949860                       # Energy for active background per rank (pJ) (Joule)
system.mem_ctrl.dram.rank1.preBackEnergy  82996695360                       # Energy for precharge background per rank (pJ) (Joule)
system.mem_ctrl.dram.rank1.actPowerDownEnergy            0                       # Energy for active power-down per rank (pJ) (Joule)
system.mem_ctrl.dram.rank1.prePowerDownEnergy            0                       # Energy for precharge power-down per rank (pJ) (Joule)
system.mem_ctrl.dram.rank1.selfRefreshEnergy            0                       # Energy for self refresh per rank (pJ) (Joule)
system.mem_ctrl.dram.rank1.totalEnergy   289289196075                       # Total energy per rank (pJ) (Joule)
system.mem_ctrl.dram.rank1.averagePower    520.931958                       # Core power per rank (mW) (Watt)
system.mem_ctrl.dram.rank1.totalIdleTime            0                       # Total Idle time Per DRAM Rank (Tick)
system.mem_ctrl.dram.rank1.pwrStateTime::IDLE 214331473000                       # Time in different power states (Tick)
system.mem_ctrl.dram.rank1.pwrStateTime::REF  18543460000                       # Time in different power states (Tick)
system.mem_ctrl.dram.rank1.pwrStateTime::SREF            0                       # Time in different power states (Tick)
system.mem_ctrl.dram.rank1.pwrStateTime::PRE_PDN            0                       # Time in different power states (Tick)
system.mem_ctrl.dram.rank1.pwrStateTime::ACT 322455167000                       # Time in different power states (Tick)
system.mem_ctrl.dram.rank1.pwrStateTime::ACT_PDN            0                       # Time in different power states (Tick)
system.mem_ctrl.power_state.pwrStateResidencyTicks::UNDEFINED 555330100000                       # Cumulative time (in ticks) in various power states (Tick)
system.membus.transDist::ReadResp             1472326                       # Transaction distribution (Count)
system.membus.transDist::WritebackDirty        155599                       # Transaction distribution (Count)
system.membus.transDist::CleanEvict           1341744                       # Transaction distribution (Count)
system.membus.transDist::ReadExReq              27919                       # Transaction distribution (Count)
system.membus.transDist::ReadExResp             27919                       # Transaction distribution (Count)
system.membus.transDist::ReadSharedReq        1472326                       # Transaction distribution (Count)
system.membus.pktCount_system.l2cache.mem_side_port::system.mem_ctrl.port      4497833                       # Packet count per connected requestor and responder (Count)
system.membus.pktCount_system.l2cache.mem_side_port::total      4497833                       # Packet count per connected requestor and responder (Count)
system.membus.pktCount::total                 4497833                       # Packet count per connected requestor and responder (Count)
system.membus.pktSize_system.l2cache.mem_side_port::system.mem_ctrl.port    105974016                       # Cumulative packet size per connected requestor and responder (Byte)
system.membus.pktSize_system.l2cache.mem_side_port::total    105974016                       # Cumulative packet size per connected requestor and responder (Byte)
system.membus.pktSize::total                105974016                       # Cumulative packet size per connected requestor and responder (Byte)
system.membus.snoops                                0                       # Total snoops (Count)
system.membus.snoopTraffic                          0                       # Total snoop traffic (Byte)
system.membus.snoopFanout::samples            1500245                       # Request fanout histogram (Count)
system.membus.snoopFanout::mean                     0                       # Request fanout histogram (Count)
system.membus.snoopFanout::stdev                    0                       # Request fanout histogram (Count)
system.membus.snoopFanout::underflows               0      0.00%      0.00% # Request fanout histogram (Count)
system.membus.snoopFanout::0                  1500245    100.00%    100.00% # Request fanout histogram (Count)
system.membus.snoopFanout::1                        0      0.00%    100.00% # Request fanout histogram (Count)
system.membus.snoopFanout::overflows                0      0.00%    100.00% # Request fanout histogram (Count)
system.membus.snoopFanout::min_value                0                       # Request fanout histogram (Count)
system.membus.snoopFanout::max_value                0                       # Request fanout histogram (Count)
system.membus.snoopFanout::total              1500245                       # Request fanout histogram (Count)
system.membus.power_state.pwrStateResidencyTicks::UNDEFINED 555330100000                       # Cumulative time (in ticks) in various power states (Tick)
system.membus.reqLayer2.occupancy          3619984000                       # Layer occupancy (ticks) (Tick)
system.membus.reqLayer2.utilization               0.0                       # Layer utilization (Ratio)
system.membus.respLayer0.occupancy         7967300500                       # Layer occupancy (ticks) (Tick)
system.membus.respLayer0.utilization              0.0                       # Layer utilization (Ratio)
system.membus.snoop_filter.totRequests        2997588                       # Total number of requests made to the snoop filter. (Count)
system.membus.snoop_filter.hitSingleRequests      1497343                       # Number of requests hitting in the snoop filter with a single holder of the requested data. (Count)
system.membus.snoop_filter.hitMultiRequests            0                       # Number of requests hitting in the snoop filter with multiple (>1) holders of the requested data. (Count)
system.membus.snoop_filter.totSnoops                0                       # Total number of snoops made to the snoop filter. (Count)
system.membus.snoop_filter.hitSingleSnoops            0                       # Number of snoops hitting in the snoop filter with a single holder of the requested data. (Count)
system.membus.snoop_filter.hitMultiSnoops            0                       # Number of snoops hitting in the snoop filter with multiple (>1) holders of the requested data. (Count)
system.workload.inst.arm                            0                       # number of arm instructions executed (Count)
system.workload.inst.quiesce                        0                       # number of quiesce instructions executed (Count)

---------- End Simulation Statistics   ----------
