
---------- Begin Simulation Statistics ----------
simSeconds                                   0.282155                       # Number of seconds simulated (Second)
simTicks                                 282154598000                       # Number of ticks simulated (Tick)
finalTick                                282154598000                       # Number of ticks from beginning of simulation (restored from checkpoints and never reset) (Tick)
simFreq                                  1000000000000                       # The number of ticks per simulated second ((Tick/Second))
hostSeconds                                    119.58                       # Real time elapsed on the host (Second)
hostTickRate                               2359482347                       # The number of ticks simulated per host second (ticks/s) ((Tick/Second))
hostMemory                                     700228                       # Number of bytes of host memory used (Byte)
simInsts                                     51509332                       # Number of instructions simulated (Count)
simOps                                       77111227                       # Number of ops (including micro ops) simulated (Count)
hostInstRate                                   430737                       # Simulator instruction rate (inst/s) ((Count/Second))
hostOpRate                                     644827                       # Simulator op (including micro ops) rate (op/s) ((Count/Second))
system.clk_domain.clock                          1000                       # Clock period in ticks (Tick)
system.clk_domain.voltage_domain.voltage            1                       # Voltage in Volts (Volt)
system.cpu.numCycles                        282154598                       # Number of cpu cycles simulated (Cycle)
system.cpu.cpi                               5.477724                       # CPI: cycles per instruction (core level) ((Cycle/Count))
system.cpu.ipc                               0.182558                       # IPC: instructions per cycle (core level) ((Count/Cycle))
system.cpu.numWorkItemsStarted                      0                       # Number of work items this cpu started (Count)
system.cpu.numWorkItemsCompleted                    0                       # Number of work items this cpu completed (Count)
system.cpu.commitStats0.numInsts             51509456                       # Number of instructions committed (thread level) (Count)
system.cpu.commitStats0.numOps               77111596                       # Number of ops (including micro ops) committed (thread level) (Count)
system.cpu.commitStats0.numInstsNotNOP              0                       # Number of instructions committed excluding NOPs or prefetches (Count)
system.cpu.commitStats0.numOpsNotNOP                0                       # Number of Ops (including micro ops) Simulated (Count)
system.cpu.commitStats0.cpi                  5.477724                       # CPI: cycles per instruction (thread level) ((Cycle/Count))
system.cpu.commitStats0.ipc                  0.182558                       # IPC: instructions per cycle (thread level) ((Count/Cycle))
system.cpu.commitStats0.numMemRefs                  0                       # Number of memory references committed (Count)
system.cpu.commitStats0.numFpInsts           18415110                       # Number of float instructions (Count)
system.cpu.commitStats0.numIntInsts          66064237                       # Number of integer instructions (Count)
system.cpu.commitStats0.numLoadInsts         22151140                       # Number of load instructions (Count)
system.cpu.commitStats0.numStoreInsts         4656687                       # Number of store instructions (Count)
system.cpu.commitStats0.numVecInsts                 0                       # Number of vector instructions (Count)
system.cpu.commitStats0.committedInstType::No_OpClass       440204      0.57%      0.57% # Class of committed instruction. (Count)
system.cpu.commitStats0.committedInstType::IntAlu     40050591     51.94%     52.51% # Class of committed instruction. (Count)
system.cpu.commitStats0.committedInstType::IntMult         9468      0.01%     52.52% # Class of committed instruction. (Count)
system.cpu.commitStats0.committedInstType::IntDiv         1817      0.00%     52.52% # Class of committed instruction. (Count)
system.cpu.commitStats0.committedInstType::FloatAdd      5238173      6.79%     59.32% # Class of committed instruction. (Count)
system.cpu.commitStats0.committedInstType::FloatCmp            0      0.00%     59.32% # Class of committed instruction. (Count)
system.cpu.commitStats0.committedInstType::FloatCvt           32      0.00%     59.32% # Class of committed instruction. (Count)
system.cpu.commitStats0.committedInstType::FloatMult            0      0.00%     59.32% # Class of committed instruction. (Count)
system.cpu.commitStats0.committedInstType::FloatMultAcc            0      0.00%     59.32% # Class of committed instruction. (Count)
system.cpu.commitStats0.committedInstType::FloatDiv            0      0.00%     59.32% # Class of committed instruction. (Count)
system.cpu.commitStats0.committedInstType::FloatMisc            0      0.00%     59.32% # Class of committed instruction. (Count)
system.cpu.commitStats0.committedInstType::FloatSqrt            0      0.00%     59.32% # Class of committed instruction. (Count)
system.cpu.commitStats0.committedInstType::SimdAdd          632      0.00%     59.32% # Class of committed instruction. (Count)
system.cpu.commitStats0.committedInstType::SimdAddAcc            0      0.00%     59.32% # Class of committed instruction. (Count)
system.cpu.commitStats0.committedInstType::SimdAlu       225599      0.29%     59.61% # Class of committed instruction. (Count)
system.cpu.commitStats0.committedInstType::SimdCmp            6      0.00%     59.61% # Class of committed instruction. (Count)
system.cpu.commitStats0.committedInstType::SimdCvt         1624      0.00%     59.61% # Class of committed instruction. (Count)
system.cpu.commitStats0.committedInstType::SimdMisc       316877      0.41%     60.02% # Class of committed instruction. (Count)
system.cpu.commitStats0.committedInstType::SimdMult            0      0.00%     60.02% # Class of committed instruction. (Count)
system.cpu.commitStats0.committedInstType::SimdMultAcc            0      0.00%     60.02% # Class of committed instruction. (Count)
system.cpu.commitStats0.committedInstType::SimdMatMultAcc            0      0.00%     60.02% # Class of committed instruction. (Count)
system.cpu.commitStats0.committedInstType::SimdShift          360      0.00%     60.02% # Class of committed instruction. (Count)
system.cpu.commitStats0.committedInstType::SimdShiftAcc            0      0.00%     60.02% # Class of committed instruction. (Count)
system.cpu.commitStats0.committedInstType::SimdDiv            0      0.00%     60.02% # Class of committed instruction. (Count)
system.cpu.commitStats0.committedInstType::SimdSqrt            0      0.00%     60.02% # Class of committed instruction. (Count)
system.cpu.commitStats0.committedInstType::SimdFloatAdd      1642598      2.13%     62.15% # Class of committed instruction. (Count)
system.cpu.commitStats0.committedInstType::SimdFloatAlu            0      0.00%     62.15% # Class of committed instruction. (Count)
system.cpu.commitStats0.committedInstType::SimdFloatCmp            0      0.00%     62.15% # Class of committed instruction. (Count)
system.cpu.commitStats0.committedInstType::SimdFloatCvt       106710      0.14%     62.29% # Class of committed instruction. (Count)
system.cpu.commitStats0.committedInstType::SimdFloatDiv       106536      0.14%     62.43% # Class of committed instruction. (Count)
system.cpu.commitStats0.committedInstType::SimdFloatMisc            0      0.00%     62.43% # Class of committed instruction. (Count)
system.cpu.commitStats0.committedInstType::SimdFloatMult      2162542      2.80%     65.24% # Class of committed instruction. (Count)
system.cpu.commitStats0.committedInstType::SimdFloatMultAcc            0      0.00%     65.24% # Class of committed instruction. (Count)
system.cpu.commitStats0.committedInstType::SimdFloatMatMultAcc            0      0.00%     65.24% # Class of committed instruction. (Count)
system.cpu.commitStats0.committedInstType::SimdFloatSqrt            0      0.00%     65.24% # Class of committed instruction. (Count)
system.cpu.commitStats0.committedInstType::SimdReduceAdd            0      0.00%     65.24% # Class of committed instruction. (Count)
system.cpu.commitStats0.committedInstType::SimdReduceAlu            0      0.00%     65.24% # Class of committed instruction. (Count)
system.cpu.commitStats0.committedInstType::SimdReduceCmp            0      0.00%     65.24% # Class of committed instruction. (Count)
system.cpu.commitStats0.committedInstType::SimdFloatReduceAdd            0      0.00%     65.24% # Class of committed instruction. (Count)
system.cpu.commitStats0.committedInstType::SimdFloatReduceCmp            0      0.00%     65.24% # Class of committed instruction. (Count)
system.cpu.commitStats0.committedInstType::SimdAes            0      0.00%     65.24% # Class of committed instruction. (Count)
system.cpu.commitStats0.committedInstType::SimdAesMix            0      0.00%     65.24% # Class of committed instruction. (Count)
system.cpu.commitStats0.committedInstType::SimdSha1Hash            0      0.00%     65.24% # Class of committed instruction. (Count)
system.cpu.commitStats0.committedInstType::SimdSha1Hash2            0      0.00%     65.24% # Class of committed instruction. (Count)
system.cpu.commitStats0.committedInstType::SimdSha256Hash            0      0.00%     65.24% # Class of committed instruction. (Count)
system.cpu.commitStats0.committedInstType::SimdSha256Hash2            0      0.00%     65.24% # Class of committed instruction. (Count)
system.cpu.commitStats0.committedInstType::SimdShaSigma2            0      0.00%     65.24% # Class of committed instruction. (Count)
system.cpu.commitStats0.committedInstType::SimdShaSigma3            0      0.00%     65.24% # Class of committed instruction. (Count)
system.cpu.commitStats0.committedInstType::SimdPredAlu            0      0.00%     65.24% # Class of committed instruction. (Count)
system.cpu.commitStats0.committedInstType::Matrix            0      0.00%     65.24% # Class of committed instruction. (Count)
system.cpu.commitStats0.committedInstType::MatrixMov            0      0.00%     65.24% # Class of committed instruction. (Count)
system.cpu.commitStats0.committedInstType::MatrixOP            0      0.00%     65.24% # Class of committed instruction. (Count)
system.cpu.commitStats0.committedInstType::MemRead     16606582     21.54%     86.77% # Class of committed instruction. (Count)
system.cpu.commitStats0.committedInstType::MemWrite      2708342      3.51%     90.28% # Class of committed instruction. (Count)
system.cpu.commitStats0.committedInstType::FloatMemRead      5544558      7.19%     97.47% # Class of committed instruction. (Count)
system.cpu.commitStats0.committedInstType::FloatMemWrite      1948345      2.53%    100.00% # Class of committed instruction. (Count)
system.cpu.commitStats0.committedInstType::IprAccess            0      0.00%    100.00% # Class of committed instruction. (Count)
system.cpu.commitStats0.committedInstType::InstPrefetch            0      0.00%    100.00% # Class of committed instruction. (Count)
system.cpu.commitStats0.committedInstType::SimdUnitStrideLoad            0      0.00%    100.00% # Class of committed instruction. (Count)
system.cpu.commitStats0.committedInstType::SimdUnitStrideStore            0      0.00%    100.00% # Class of committed instruction. (Count)
system.cpu.commitStats0.committedInstType::SimdUnitStrideMaskLoad            0      0.00%    100.00% # Class of committed instruction. (Count)
system.cpu.commitStats0.committedInstType::SimdUnitStrideMaskStore            0      0.00%    100.00% # Class of committed instruction. (Count)
system.cpu.commitStats0.committedInstType::SimdStridedLoad            0      0.00%    100.00% # Class of committed instruction. (Count)
system.cpu.commitStats0.committedInstType::SimdStridedStore            0      0.00%    100.00% # Class of committed instruction. (Count)
system.cpu.commitStats0.committedInstType::SimdIndexedLoad            0      0.00%    100.00% # Class of committed instruction. (Count)
system.cpu.commitStats0.committedInstType::SimdIndexedStore            0      0.00%    100.00% # Class of committed instruction. (Count)
system.cpu.commitStats0.committedInstType::SimdWholeRegisterLoad            0      0.00%    100.00% # Class of committed instruction. (Count)
system.cpu.commitStats0.committedInstType::SimdWholeRegisterStore            0      0.00%    100.00% # Class of committed instruction. (Count)
system.cpu.commitStats0.committedInstType::SimdUnitStrideFaultOnlyFirstLoad            0      0.00%    100.00% # Class of committed instruction. (Count)
system.cpu.commitStats0.committedInstType::SimdUnitStrideSegmentedLoad            0      0.00%    100.00% # Class of committed instruction. (Count)
system.cpu.commitStats0.committedInstType::SimdUnitStrideSegmentedStore            0      0.00%    100.00% # Class of committed instruction. (Count)
system.cpu.commitStats0.committedInstType::SimdExt            0      0.00%    100.00% # Class of committed instruction. (Count)
system.cpu.commitStats0.committedInstType::SimdFloatExt            0      0.00%    100.00% # Class of committed instruction. (Count)
system.cpu.commitStats0.committedInstType::SimdConfig            0      0.00%    100.00% # Class of committed instruction. (Count)
system.cpu.commitStats0.committedInstType::total     77111596                       # Class of committed instruction. (Count)
system.cpu.commitStats0.committedControl::IsControl      3557188                       # Class of control type instructions committed (Count)
system.cpu.commitStats0.committedControl::IsDirectControl      3112259                       # Class of control type instructions committed (Count)
system.cpu.commitStats0.committedControl::IsIndirectControl       444860                       # Class of control type instructions committed (Count)
system.cpu.commitStats0.committedControl::IsCondControl      2669731                       # Class of control type instructions committed (Count)
system.cpu.commitStats0.committedControl::IsUncondControl       887388                       # Class of control type instructions committed (Count)
system.cpu.commitStats0.committedControl::IsCall       322640                       # Class of control type instructions committed (Count)
system.cpu.commitStats0.committedControl::IsReturn       322636                       # Class of control type instructions committed (Count)
system.cpu.dcache.demandHits::cpu.data       26051571                       # number of demand (read+write) hits (Count)
system.cpu.dcache.demandHits::total          26051571                       # number of demand (read+write) hits (Count)
system.cpu.dcache.overallHits::cpu.data      26051571                       # number of overall hits (Count)
system.cpu.dcache.overallHits::total         26051571                       # number of overall hits (Count)
system.cpu.dcache.demandMisses::cpu.data       755994                       # number of demand (read+write) misses (Count)
system.cpu.dcache.demandMisses::total          755994                       # number of demand (read+write) misses (Count)
system.cpu.dcache.overallMisses::cpu.data       755994                       # number of overall misses (Count)
system.cpu.dcache.overallMisses::total         755994                       # number of overall misses (Count)
system.cpu.dcache.demandMissLatency::cpu.data  76618039000                       # number of demand (read+write) miss ticks (Tick)
system.cpu.dcache.demandMissLatency::total  76618039000                       # number of demand (read+write) miss ticks (Tick)
system.cpu.dcache.overallMissLatency::cpu.data  76618039000                       # number of overall miss ticks (Tick)
system.cpu.dcache.overallMissLatency::total  76618039000                       # number of overall miss ticks (Tick)
system.cpu.dcache.demandAccesses::cpu.data     26807565                       # number of demand (read+write) accesses (Count)
system.cpu.dcache.demandAccesses::total      26807565                       # number of demand (read+write) accesses (Count)
system.cpu.dcache.overallAccesses::cpu.data     26807565                       # number of overall (read+write) accesses (Count)
system.cpu.dcache.overallAccesses::total     26807565                       # number of overall (read+write) accesses (Count)
system.cpu.dcache.demandMissRate::cpu.data     0.028201                       # miss rate for demand accesses (Ratio)
system.cpu.dcache.demandMissRate::total      0.028201                       # miss rate for demand accesses (Ratio)
system.cpu.dcache.overallMissRate::cpu.data     0.028201                       # miss rate for overall accesses (Ratio)
system.cpu.dcache.overallMissRate::total     0.028201                       # miss rate for overall accesses (Ratio)
system.cpu.dcache.demandAvgMissLatency::cpu.data 101347.416778                       # average overall miss latency in ticks ((Tick/Count))
system.cpu.dcache.demandAvgMissLatency::total 101347.416778                       # average overall miss latency in ticks ((Tick/Count))
system.cpu.dcache.overallAvgMissLatency::cpu.data 101347.416778                       # average overall miss latency ((Tick/Count))
system.cpu.dcache.overallAvgMissLatency::total 101347.416778                       # average overall miss latency ((Tick/Count))
system.cpu.dcache.blockedCycles::no_mshrs            0                       # number of cycles access was blocked (Cycle)
system.cpu.dcache.blockedCycles::no_targets            0                       # number of cycles access was blocked (Cycle)
system.cpu.dcache.blockedCauses::no_mshrs            0                       # number of times access was blocked (Count)
system.cpu.dcache.blockedCauses::no_targets            0                       # number of times access was blocked (Count)
system.cpu.dcache.avgBlocked::no_mshrs            nan                       # average number of cycles each access was blocked ((Cycle/Count))
system.cpu.dcache.avgBlocked::no_targets          nan                       # average number of cycles each access was blocked ((Cycle/Count))
system.cpu.dcache.writebacks::writebacks        79296                       # number of writebacks (Count)
system.cpu.dcache.writebacks::total             79296                       # number of writebacks (Count)
system.cpu.dcache.demandMshrMisses::cpu.data       755994                       # number of demand (read+write) MSHR misses (Count)
system.cpu.dcache.demandMshrMisses::total       755994                       # number of demand (read+write) MSHR misses (Count)
system.cpu.dcache.overallMshrMisses::cpu.data       755994                       # number of overall MSHR misses (Count)
system.cpu.dcache.overallMshrMisses::total       755994                       # number of overall MSHR misses (Count)
system.cpu.dcache.demandMshrMissLatency::cpu.data  75106051000                       # number of demand (read+write) MSHR miss ticks (Tick)
system.cpu.dcache.demandMshrMissLatency::total  75106051000                       # number of demand (read+write) MSHR miss ticks (Tick)
system.cpu.dcache.overallMshrMissLatency::cpu.data  75106051000                       # number of overall MSHR miss ticks (Tick)
system.cpu.dcache.overallMshrMissLatency::total  75106051000                       # number of overall MSHR miss ticks (Tick)
system.cpu.dcache.demandMshrMissRate::cpu.data     0.028201                       # mshr miss ratio for demand accesses (Ratio)
system.cpu.dcache.demandMshrMissRate::total     0.028201                       # mshr miss ratio for demand accesses (Ratio)
system.cpu.dcache.overallMshrMissRate::cpu.data     0.028201                       # mshr miss ratio for overall accesses (Ratio)
system.cpu.dcache.overallMshrMissRate::total     0.028201                       # mshr miss ratio for overall accesses (Ratio)
system.cpu.dcache.demandAvgMshrMissLatency::cpu.data 99347.416778                       # average overall mshr miss latency ((Tick/Count))
system.cpu.dcache.demandAvgMshrMissLatency::total 99347.416778                       # average overall mshr miss latency ((Tick/Count))
system.cpu.dcache.overallAvgMshrMissLatency::cpu.data 99347.416778                       # average overall mshr miss latency ((Tick/Count))
system.cpu.dcache.overallAvgMshrMissLatency::total 99347.416778                       # average overall mshr miss latency ((Tick/Count))
system.cpu.dcache.replacements                 755482                       # number of replacements (Count)
system.cpu.dcache.ReadReq.hits::cpu.data     21409983                       # number of ReadReq hits (Count)
system.cpu.dcache.ReadReq.hits::total        21409983                       # number of ReadReq hits (Count)
system.cpu.dcache.ReadReq.misses::cpu.data       740923                       # number of ReadReq misses (Count)
system.cpu.dcache.ReadReq.misses::total        740923                       # number of ReadReq misses (Count)
system.cpu.dcache.ReadReq.missLatency::cpu.data  75105128000                       # number of ReadReq miss ticks (Tick)
system.cpu.dcache.ReadReq.missLatency::total  75105128000                       # number of ReadReq miss ticks (Tick)
system.cpu.dcache.ReadReq.accesses::cpu.data     22150906                       # number of ReadReq accesses(hits+misses) (Count)
system.cpu.dcache.ReadReq.accesses::total     22150906                       # number of ReadReq accesses(hits+misses) (Count)
system.cpu.dcache.ReadReq.missRate::cpu.data     0.033449                       # miss rate for ReadReq accesses (Ratio)
system.cpu.dcache.ReadReq.missRate::total     0.033449                       # miss rate for ReadReq accesses (Ratio)
system.cpu.dcache.ReadReq.avgMissLatency::cpu.data 101366.981454                       # average ReadReq miss latency ((Tick/Count))
system.cpu.dcache.ReadReq.avgMissLatency::total 101366.981454                       # average ReadReq miss latency ((Tick/Count))
system.cpu.dcache.ReadReq.mshrMisses::cpu.data       740923                       # number of ReadReq MSHR misses (Count)
system.cpu.dcache.ReadReq.mshrMisses::total       740923                       # number of ReadReq MSHR misses (Count)
system.cpu.dcache.ReadReq.mshrMissLatency::cpu.data  73623282000                       # number of ReadReq MSHR miss ticks (Tick)
system.cpu.dcache.ReadReq.mshrMissLatency::total  73623282000                       # number of ReadReq MSHR miss ticks (Tick)
system.cpu.dcache.ReadReq.mshrMissRate::cpu.data     0.033449                       # mshr miss rate for ReadReq accesses (Ratio)
system.cpu.dcache.ReadReq.mshrMissRate::total     0.033449                       # mshr miss rate for ReadReq accesses (Ratio)
system.cpu.dcache.ReadReq.avgMshrMissLatency::cpu.data 99366.981454                       # average ReadReq mshr miss latency ((Tick/Count))
system.cpu.dcache.ReadReq.avgMshrMissLatency::total 99366.981454                       # average ReadReq mshr miss latency ((Tick/Count))
system.cpu.dcache.WriteReq.hits::cpu.data      4641588                       # number of WriteReq hits (Count)
system.cpu.dcache.WriteReq.hits::total        4641588                       # number of WriteReq hits (Count)
system.cpu.dcache.WriteReq.misses::cpu.data        15071                       # number of WriteReq misses (Count)
system.cpu.dcache.WriteReq.misses::total        15071                       # number of WriteReq misses (Count)
system.cpu.dcache.WriteReq.missLatency::cpu.data   1512911000                       # number of WriteReq miss ticks (Tick)
system.cpu.dcache.WriteReq.missLatency::total   1512911000                       # number of WriteReq miss ticks (Tick)
system.cpu.dcache.WriteReq.accesses::cpu.data      4656659                       # number of WriteReq accesses(hits+misses) (Count)
system.cpu.dcache.WriteReq.accesses::total      4656659                       # number of WriteReq accesses(hits+misses) (Count)
system.cpu.dcache.WriteReq.missRate::cpu.data     0.003236                       # miss rate for WriteReq accesses (Ratio)
system.cpu.dcache.WriteReq.missRate::total     0.003236                       # miss rate for WriteReq accesses (Ratio)
system.cpu.dcache.WriteReq.avgMissLatency::cpu.data 100385.574945                       # average WriteReq miss latency ((Tick/Count))
system.cpu.dcache.WriteReq.avgMissLatency::total 100385.574945                       # average WriteReq miss latency ((Tick/Count))
system.cpu.dcache.WriteReq.mshrMisses::cpu.data        15071                       # number of WriteReq MSHR misses (Count)
system.cpu.dcache.WriteReq.mshrMisses::total        15071                       # number of WriteReq MSHR misses (Count)
system.cpu.dcache.WriteReq.mshrMissLatency::cpu.data   1482769000                       # number of WriteReq MSHR miss ticks (Tick)
system.cpu.dcache.WriteReq.mshrMissLatency::total   1482769000                       # number of WriteReq MSHR miss ticks (Tick)
system.cpu.dcache.WriteReq.mshrMissRate::cpu.data     0.003236                       # mshr miss rate for WriteReq accesses (Ratio)
system.cpu.dcache.WriteReq.mshrMissRate::total     0.003236                       # mshr miss rate for WriteReq accesses (Ratio)
system.cpu.dcache.WriteReq.avgMshrMissLatency::cpu.data 98385.574945                       # average WriteReq mshr miss latency ((Tick/Count))
system.cpu.dcache.WriteReq.avgMshrMissLatency::total 98385.574945                       # average WriteReq mshr miss latency ((Tick/Count))
system.cpu.dcache.power_state.pwrStateResidencyTicks::UNDEFINED 282154598000                       # Cumulative time (in ticks) in various power states (Tick)
system.cpu.dcache.tags.tagsInUse           511.802577                       # Average ticks per tags in use ((Tick/Count))
system.cpu.dcache.tags.totalRefs             26807565                       # Total number of references to valid blocks. (Count)
system.cpu.dcache.tags.sampledRefs             755994                       # Sample count of references to valid blocks. (Count)
system.cpu.dcache.tags.avgRefs              35.460023                       # Average number of references to valid blocks. ((Count/Count))
system.cpu.dcache.tags.warmupTick              218000                       # The tick when the warmup percentage was hit. (Tick)
system.cpu.dcache.tags.occupancies::cpu.data   511.802577                       # Average occupied blocks per tick, per requestor ((Count/Tick))
system.cpu.dcache.tags.avgOccs::cpu.data     0.999614                       # Average percentage of cache occupancy ((Ratio/Tick))
system.cpu.dcache.tags.avgOccs::total        0.999614                       # Average percentage of cache occupancy ((Ratio/Tick))
system.cpu.dcache.tags.occupanciesTaskId::1024          512                       # Occupied blocks per task id (Count)
system.cpu.dcache.tags.ageTaskId_1024::0           23                       # Occupied blocks per task id, per block age (Count)
system.cpu.dcache.tags.ageTaskId_1024::1          122                       # Occupied blocks per task id, per block age (Count)
system.cpu.dcache.tags.ageTaskId_1024::2          176                       # Occupied blocks per task id, per block age (Count)
system.cpu.dcache.tags.ageTaskId_1024::3          106                       # Occupied blocks per task id, per block age (Count)
system.cpu.dcache.tags.ageTaskId_1024::4           85                       # Occupied blocks per task id, per block age (Count)
system.cpu.dcache.tags.ratioOccsTaskId::1024            1                       # Ratio of occupied blocks and all blocks, per task id (Ratio)
system.cpu.dcache.tags.tagAccesses           54371124                       # Number of tag accesses (Count)
system.cpu.dcache.tags.dataAccesses          54371124                       # Number of data accesses (Count)
system.cpu.dcache.tags.power_state.pwrStateResidencyTicks::UNDEFINED 282154598000                       # Cumulative time (in ticks) in various power states (Tick)
system.cpu.exec_context.thread_0.numMatAluAccesses            0                       # Number of matrix alu accesses (Count)
system.cpu.exec_context.thread_0.numCallsReturns       645276                       # Number of times a function call or return occured (Count)
system.cpu.exec_context.thread_0.numMatInsts            0                       # Number of matrix instructions (Count)
system.cpu.exec_context.thread_0.numIdleCycles     0.001000                       # Number of idle cycles (Cycle)
system.cpu.exec_context.thread_0.numBusyCycles 282154597.999000                       # Number of busy cycles (Cycle)
system.cpu.exec_context.thread_0.notIdleFraction     1.000000                       # Percentage of non-idle cycles (Ratio)
system.cpu.exec_context.thread_0.idleFraction     0.000000                       # Percentage of idle cycles (Ratio)
system.cpu.executeStats0.numInsts                   0                       # Number of executed instructions (Count)
system.cpu.executeStats0.numNop                     0                       # Number of nop insts executed (Count)
system.cpu.executeStats0.numBranches                0                       # Number of branches executed (Count)
system.cpu.executeStats0.numLoadInsts               0                       # Number of load instructions executed (Count)
system.cpu.executeStats0.numStoreInsts       26807827                       # Number of stores executed (Count)
system.cpu.executeStats0.instRate                   0                       # Inst execution rate ((Count/Cycle))
system.cpu.executeStats0.numFpAluAccesses     18415110                       # Number of float alu accesses (Count)
system.cpu.executeStats0.numFpRegReads       16913866                       # Number of times the floating registers were read (Count)
system.cpu.executeStats0.numFpRegWrites      16462942                       # Number of times the floating registers were written (Count)
system.cpu.executeStats0.numIntAluAccesses     66064237                       # Number of integer alu accesses (Count)
system.cpu.executeStats0.numIntRegReads      78857551                       # Number of times the integer registers were read (Count)
system.cpu.executeStats0.numIntRegWrites     49334696                       # Number of times the integer registers were written (Count)
system.cpu.executeStats0.numMemRefs          26807827                       # Number of memory refs (Count)
system.cpu.executeStats0.numMiscRegReads     34046034                       # Number of times the Misc registers were read (Count)
system.cpu.executeStats0.numMiscRegWrites           18                       # Number of times the Misc registers were written (Count)
system.cpu.executeStats0.numVecAluAccesses            0                       # Number of vector alu accesses (Count)
system.cpu.executeStats0.numDiscardedOps            0                       # Number of ops (including micro ops) which were discarded before commit (Count)
system.cpu.fetchStats0.numInsts              51509456                       # Number of instructions fetched (thread level) (Count)
system.cpu.fetchStats0.numOps                77111596                       # Number of ops (including micro ops) fetched (thread level) (Count)
system.cpu.fetchStats0.fetchRate             0.182558                       # Number of inst fetches per cycle ((Count/Cycle))
system.cpu.fetchStats0.numBranches            3557188                       # Number of branches fetched (Count)
system.cpu.fetchStats0.branchRate            0.012607                       # Number of branch fetches per cycle (Ratio)
system.cpu.fetchStats0.numFetchSuspends             0                       # Number of times Execute suspended instruction fetching (Count)
system.cpu.icache.demandHits::cpu.inst       76626558                       # number of demand (read+write) hits (Count)
system.cpu.icache.demandHits::total          76626558                       # number of demand (read+write) hits (Count)
system.cpu.icache.overallHits::cpu.inst      76626558                       # number of overall hits (Count)
system.cpu.icache.overallHits::total         76626558                       # number of overall hits (Count)
system.cpu.icache.demandMisses::cpu.inst         1768                       # number of demand (read+write) misses (Count)
system.cpu.icache.demandMisses::total            1768                       # number of demand (read+write) misses (Count)
system.cpu.icache.overallMisses::cpu.inst         1768                       # number of overall misses (Count)
system.cpu.icache.overallMisses::total           1768                       # number of overall misses (Count)
system.cpu.icache.demandMissLatency::cpu.inst    180694000                       # number of demand (read+write) miss ticks (Tick)
system.cpu.icache.demandMissLatency::total    180694000                       # number of demand (read+write) miss ticks (Tick)
system.cpu.icache.overallMissLatency::cpu.inst    180694000                       # number of overall miss ticks (Tick)
system.cpu.icache.overallMissLatency::total    180694000                       # number of overall miss ticks (Tick)
system.cpu.icache.demandAccesses::cpu.inst     76628326                       # number of demand (read+write) accesses (Count)
system.cpu.icache.demandAccesses::total      76628326                       # number of demand (read+write) accesses (Count)
system.cpu.icache.overallAccesses::cpu.inst     76628326                       # number of overall (read+write) accesses (Count)
system.cpu.icache.overallAccesses::total     76628326                       # number of overall (read+write) accesses (Count)
system.cpu.icache.demandMissRate::cpu.inst     0.000023                       # miss rate for demand accesses (Ratio)
system.cpu.icache.demandMissRate::total      0.000023                       # miss rate for demand accesses (Ratio)
system.cpu.icache.overallMissRate::cpu.inst     0.000023                       # miss rate for overall accesses (Ratio)
system.cpu.icache.overallMissRate::total     0.000023                       # miss rate for overall accesses (Ratio)
system.cpu.icache.demandAvgMissLatency::cpu.inst 102202.488688                       # average overall miss latency in ticks ((Tick/Count))
system.cpu.icache.demandAvgMissLatency::total 102202.488688                       # average overall miss latency in ticks ((Tick/Count))
system.cpu.icache.overallAvgMissLatency::cpu.inst 102202.488688                       # average overall miss latency ((Tick/Count))
system.cpu.icache.overallAvgMissLatency::total 102202.488688                       # average overall miss latency ((Tick/Count))
system.cpu.icache.blockedCycles::no_mshrs            0                       # number of cycles access was blocked (Cycle)
system.cpu.icache.blockedCycles::no_targets            0                       # number of cycles access was blocked (Cycle)
system.cpu.icache.blockedCauses::no_mshrs            0                       # number of times access was blocked (Count)
system.cpu.icache.blockedCauses::no_targets            0                       # number of times access was blocked (Count)
system.cpu.icache.avgBlocked::no_mshrs            nan                       # average number of cycles each access was blocked ((Cycle/Count))
system.cpu.icache.avgBlocked::no_targets          nan                       # average number of cycles each access was blocked ((Cycle/Count))
system.cpu.icache.demandMshrMisses::cpu.inst         1768                       # number of demand (read+write) MSHR misses (Count)
system.cpu.icache.demandMshrMisses::total         1768                       # number of demand (read+write) MSHR misses (Count)
system.cpu.icache.overallMshrMisses::cpu.inst         1768                       # number of overall MSHR misses (Count)
system.cpu.icache.overallMshrMisses::total         1768                       # number of overall MSHR misses (Count)
system.cpu.icache.demandMshrMissLatency::cpu.inst    177158000                       # number of demand (read+write) MSHR miss ticks (Tick)
system.cpu.icache.demandMshrMissLatency::total    177158000                       # number of demand (read+write) MSHR miss ticks (Tick)
system.cpu.icache.overallMshrMissLatency::cpu.inst    177158000                       # number of overall MSHR miss ticks (Tick)
system.cpu.icache.overallMshrMissLatency::total    177158000                       # number of overall MSHR miss ticks (Tick)
system.cpu.icache.demandMshrMissRate::cpu.inst     0.000023                       # mshr miss ratio for demand accesses (Ratio)
system.cpu.icache.demandMshrMissRate::total     0.000023                       # mshr miss ratio for demand accesses (Ratio)
system.cpu.icache.overallMshrMissRate::cpu.inst     0.000023                       # mshr miss ratio for overall accesses (Ratio)
system.cpu.icache.overallMshrMissRate::total     0.000023                       # mshr miss ratio for overall accesses (Ratio)
system.cpu.icache.demandAvgMshrMissLatency::cpu.inst 100202.488688                       # average overall mshr miss latency ((Tick/Count))
system.cpu.icache.demandAvgMshrMissLatency::total 100202.488688                       # average overall mshr miss latency ((Tick/Count))
system.cpu.icache.overallAvgMshrMissLatency::cpu.inst 100202.488688                       # average overall mshr miss latency ((Tick/Count))
system.cpu.icache.overallAvgMshrMissLatency::total 100202.488688                       # average overall mshr miss latency ((Tick/Count))
system.cpu.icache.replacements                   1259                       # number of replacements (Count)
system.cpu.icache.ReadReq.hits::cpu.inst     76626558                       # number of ReadReq hits (Count)
system.cpu.icache.ReadReq.hits::total        76626558                       # number of ReadReq hits (Count)
system.cpu.icache.ReadReq.misses::cpu.inst         1768                       # number of ReadReq misses (Count)
system.cpu.icache.ReadReq.misses::total          1768                       # number of ReadReq misses (Count)
system.cpu.icache.ReadReq.missLatency::cpu.inst    180694000                       # number of ReadReq miss ticks (Tick)
system.cpu.icache.ReadReq.missLatency::total    180694000                       # number of ReadReq miss ticks (Tick)
system.cpu.icache.ReadReq.accesses::cpu.inst     76628326                       # number of ReadReq accesses(hits+misses) (Count)
system.cpu.icache.ReadReq.accesses::total     76628326                       # number of ReadReq accesses(hits+misses) (Count)
system.cpu.icache.ReadReq.missRate::cpu.inst     0.000023                       # miss rate for ReadReq accesses (Ratio)
system.cpu.icache.ReadReq.missRate::total     0.000023                       # miss rate for ReadReq accesses (Ratio)
system.cpu.icache.ReadReq.avgMissLatency::cpu.inst 102202.488688                       # average ReadReq miss latency ((Tick/Count))
system.cpu.icache.ReadReq.avgMissLatency::total 102202.488688                       # average ReadReq miss latency ((Tick/Count))
system.cpu.icache.ReadReq.mshrMisses::cpu.inst         1768                       # number of ReadReq MSHR misses (Count)
system.cpu.icache.ReadReq.mshrMisses::total         1768                       # number of ReadReq MSHR misses (Count)
system.cpu.icache.ReadReq.mshrMissLatency::cpu.inst    177158000                       # number of ReadReq MSHR miss ticks (Tick)
system.cpu.icache.ReadReq.mshrMissLatency::total    177158000                       # number of ReadReq MSHR miss ticks (Tick)
system.cpu.icache.ReadReq.mshrMissRate::cpu.inst     0.000023                       # mshr miss rate for ReadReq accesses (Ratio)
system.cpu.icache.ReadReq.mshrMissRate::total     0.000023                       # mshr miss rate for ReadReq accesses (Ratio)
system.cpu.icache.ReadReq.avgMshrMissLatency::cpu.inst 100202.488688                       # average ReadReq mshr miss latency ((Tick/Count))
system.cpu.icache.ReadReq.avgMshrMissLatency::total 100202.488688                       # average ReadReq mshr miss latency ((Tick/Count))
system.cpu.icache.power_state.pwrStateResidencyTicks::UNDEFINED 282154598000                       # Cumulative time (in ticks) in various power states (Tick)
system.cpu.icache.tags.tagsInUse           503.948272                       # Average ticks per tags in use ((Tick/Count))
system.cpu.icache.tags.totalRefs             76628326                       # Total number of references to valid blocks. (Count)
system.cpu.icache.tags.sampledRefs               1768                       # Sample count of references to valid blocks. (Count)
system.cpu.icache.tags.avgRefs           43341.813348                       # Average number of references to valid blocks. ((Count/Count))
system.cpu.icache.tags.warmupTick              107000                       # The tick when the warmup percentage was hit. (Tick)
system.cpu.icache.tags.occupancies::cpu.inst   503.948272                       # Average occupied blocks per tick, per requestor ((Count/Tick))
system.cpu.icache.tags.avgOccs::cpu.inst     0.984274                       # Average percentage of cache occupancy ((Ratio/Tick))
system.cpu.icache.tags.avgOccs::total        0.984274                       # Average percentage of cache occupancy ((Ratio/Tick))
system.cpu.icache.tags.occupanciesTaskId::1024          509                       # Occupied blocks per task id (Count)
system.cpu.icache.tags.ageTaskId_1024::0           50                       # Occupied blocks per task id, per block age (Count)
system.cpu.icache.tags.ageTaskId_1024::1          119                       # Occupied blocks per task id, per block age (Count)
system.cpu.icache.tags.ageTaskId_1024::2            1                       # Occupied blocks per task id, per block age (Count)
system.cpu.icache.tags.ageTaskId_1024::4          339                       # Occupied blocks per task id, per block age (Count)
system.cpu.icache.tags.ratioOccsTaskId::1024     0.994141                       # Ratio of occupied blocks and all blocks, per task id (Ratio)
system.cpu.icache.tags.tagAccesses          153258420                       # Number of tag accesses (Count)
system.cpu.icache.tags.dataAccesses         153258420                       # Number of data accesses (Count)
system.cpu.icache.tags.power_state.pwrStateResidencyTicks::UNDEFINED 282154598000                       # Cumulative time (in ticks) in various power states (Tick)
system.cpu.interrupts.clk_domain.clock          16000                       # Clock period in ticks (Tick)
system.cpu.mmu.dtb.rdAccesses                22151169                       # TLB accesses on read requests (Count)
system.cpu.mmu.dtb.wrAccesses                 4656689                       # TLB accesses on write requests (Count)
system.cpu.mmu.dtb.rdMisses                    158785                       # TLB misses on read requests (Count)
system.cpu.mmu.dtb.wrMisses                       901                       # TLB misses on write requests (Count)
system.cpu.mmu.dtb.walker.power_state.pwrStateResidencyTicks::UNDEFINED 282154598000                       # Cumulative time (in ticks) in various power states (Tick)
system.cpu.mmu.itb.rdAccesses                       0                       # TLB accesses on read requests (Count)
system.cpu.mmu.itb.wrAccesses                76628397                       # TLB accesses on write requests (Count)
system.cpu.mmu.itb.rdMisses                         0                       # TLB misses on read requests (Count)
system.cpu.mmu.itb.wrMisses                       243                       # TLB misses on write requests (Count)
system.cpu.mmu.itb.walker.power_state.pwrStateResidencyTicks::UNDEFINED 282154598000                       # Cumulative time (in ticks) in various power states (Tick)
system.cpu.power_state.pwrStateResidencyTicks::ON 282154598000                       # Cumulative time (in ticks) in various power states (Tick)
system.cpu.thread_0.numInsts                        0                       # Number of Instructions committed (Count)
system.cpu.thread_0.numOps                          0                       # Number of Ops committed (Count)
system.cpu.thread_0.numMemRefs                      0                       # Number of Memory References (Count)
system.cpu.workload.numSyscalls                    76                       # Number of system calls (Count)
system.l2bus.transDist::ReadResp               742691                       # Transaction distribution (Count)
system.l2bus.transDist::WritebackDirty         158202                       # Transaction distribution (Count)
system.l2bus.transDist::CleanEvict            1422361                       # Transaction distribution (Count)
system.l2bus.transDist::ReadExReq               15071                       # Transaction distribution (Count)
system.l2bus.transDist::ReadExResp              15071                       # Transaction distribution (Count)
system.l2bus.transDist::ReadSharedReq          742691                       # Transaction distribution (Count)
system.l2bus.pktCount_system.cpu.icache.mem_side_port::system.l2cache.cpu_side_port         4795                       # Packet count per connected requestor and responder (Count)
system.l2bus.pktCount_system.cpu.dcache.mem_side_port::system.l2cache.cpu_side_port      2267470                       # Packet count per connected requestor and responder (Count)
system.l2bus.pktCount::total                  2272265                       # Packet count per connected requestor and responder (Count)
system.l2bus.pktSize_system.cpu.icache.mem_side_port::system.l2cache.cpu_side_port       113152                       # Cumulative packet size per connected requestor and responder (Byte)
system.l2bus.pktSize_system.cpu.dcache.mem_side_port::system.l2cache.cpu_side_port     53458560                       # Cumulative packet size per connected requestor and responder (Byte)
system.l2bus.pktSize::total                  53571712                       # Cumulative packet size per connected requestor and responder (Byte)
system.l2bus.snoops                            823822                       # Total snoops (Count)
system.l2bus.snoopTraffic                     5049984                       # Total snoop traffic (Byte)
system.l2bus.snoopFanout::samples             1581584                       # Request fanout histogram (Count)
system.l2bus.snoopFanout::mean               0.247143                       # Request fanout histogram (Count)
system.l2bus.snoopFanout::stdev              0.431351                       # Request fanout histogram (Count)
system.l2bus.snoopFanout::underflows                0      0.00%      0.00% # Request fanout histogram (Count)
system.l2bus.snoopFanout::0                   1190706     75.29%     75.29% # Request fanout histogram (Count)
system.l2bus.snoopFanout::1                    390878     24.71%    100.00% # Request fanout histogram (Count)
system.l2bus.snoopFanout::2                         0      0.00%    100.00% # Request fanout histogram (Count)
system.l2bus.snoopFanout::overflows                 0      0.00%    100.00% # Request fanout histogram (Count)
system.l2bus.snoopFanout::min_value                 0                       # Request fanout histogram (Count)
system.l2bus.snoopFanout::max_value                 1                       # Request fanout histogram (Count)
system.l2bus.snoopFanout::total               1581584                       # Request fanout histogram (Count)
system.l2bus.power_state.pwrStateResidencyTicks::UNDEFINED 282154598000                       # Cumulative time (in ticks) in various power states (Tick)
system.l2bus.reqLayer0.occupancy           1673095000                       # Layer occupancy (ticks) (Tick)
system.l2bus.reqLayer0.utilization                0.0                       # Layer utilization (Ratio)
system.l2bus.respLayer0.occupancy             5304000                       # Layer occupancy (ticks) (Tick)
system.l2bus.respLayer0.utilization               0.0                       # Layer utilization (Ratio)
system.l2bus.respLayer1.occupancy          2267982000                       # Layer occupancy (ticks) (Tick)
system.l2bus.respLayer1.utilization               0.0                       # Layer utilization (Ratio)
system.l2bus.snoop_filter.totRequests         1514503                       # Total number of requests made to the snoop filter. (Count)
system.l2bus.snoop_filter.hitSingleRequests       756741                       # Number of requests hitting in the snoop filter with a single holder of the requested data. (Count)
system.l2bus.snoop_filter.hitMultiRequests            0                       # Number of requests hitting in the snoop filter with multiple (>1) holders of the requested data. (Count)
system.l2bus.snoop_filter.totSnoops            390878                       # Total number of snoops made to the snoop filter. (Count)
system.l2bus.snoop_filter.hitSingleSnoops       390878                       # Number of snoops hitting in the snoop filter with a single holder of the requested data. (Count)
system.l2bus.snoop_filter.hitMultiSnoops            0                       # Number of snoops hitting in the snoop filter with multiple (>1) holders of the requested data. (Count)
system.l2cache.demandHits::cpu.inst                52                       # number of demand (read+write) hits (Count)
system.l2cache.demandHits::cpu.data               693                       # number of demand (read+write) hits (Count)
system.l2cache.demandHits::total                  745                       # number of demand (read+write) hits (Count)
system.l2cache.overallHits::cpu.inst               52                       # number of overall hits (Count)
system.l2cache.overallHits::cpu.data              693                       # number of overall hits (Count)
system.l2cache.overallHits::total                 745                       # number of overall hits (Count)
system.l2cache.demandMisses::cpu.inst            1716                       # number of demand (read+write) misses (Count)
system.l2cache.demandMisses::cpu.data          755301                       # number of demand (read+write) misses (Count)
system.l2cache.demandMisses::total             757017                       # number of demand (read+write) misses (Count)
system.l2cache.overallMisses::cpu.inst           1716                       # number of overall misses (Count)
system.l2cache.overallMisses::cpu.data         755301                       # number of overall misses (Count)
system.l2cache.overallMisses::total            757017                       # number of overall misses (Count)
system.l2cache.demandMissLatency::cpu.inst    170746000                       # number of demand (read+write) miss ticks (Tick)
system.l2cache.demandMissLatency::cpu.data  72823511000                       # number of demand (read+write) miss ticks (Tick)
system.l2cache.demandMissLatency::total   72994257000                       # number of demand (read+write) miss ticks (Tick)
system.l2cache.overallMissLatency::cpu.inst    170746000                       # number of overall miss ticks (Tick)
system.l2cache.overallMissLatency::cpu.data  72823511000                       # number of overall miss ticks (Tick)
system.l2cache.overallMissLatency::total  72994257000                       # number of overall miss ticks (Tick)
system.l2cache.demandAccesses::cpu.inst          1768                       # number of demand (read+write) accesses (Count)
system.l2cache.demandAccesses::cpu.data        755994                       # number of demand (read+write) accesses (Count)
system.l2cache.demandAccesses::total           757762                       # number of demand (read+write) accesses (Count)
system.l2cache.overallAccesses::cpu.inst         1768                       # number of overall (read+write) accesses (Count)
system.l2cache.overallAccesses::cpu.data       755994                       # number of overall (read+write) accesses (Count)
system.l2cache.overallAccesses::total          757762                       # number of overall (read+write) accesses (Count)
system.l2cache.demandMissRate::cpu.inst      0.970588                       # miss rate for demand accesses (Ratio)
system.l2cache.demandMissRate::cpu.data      0.999083                       # miss rate for demand accesses (Ratio)
system.l2cache.demandMissRate::total         0.999017                       # miss rate for demand accesses (Ratio)
system.l2cache.overallMissRate::cpu.inst     0.970588                       # miss rate for overall accesses (Ratio)
system.l2cache.overallMissRate::cpu.data     0.999083                       # miss rate for overall accesses (Ratio)
system.l2cache.overallMissRate::total        0.999017                       # miss rate for overall accesses (Ratio)
system.l2cache.demandAvgMissLatency::cpu.inst 99502.331002                       # average overall miss latency in ticks ((Tick/Count))
system.l2cache.demandAvgMissLatency::cpu.data 96416.542544                       # average overall miss latency in ticks ((Tick/Count))
system.l2cache.demandAvgMissLatency::total 96423.537384                       # average overall miss latency in ticks ((Tick/Count))
system.l2cache.overallAvgMissLatency::cpu.inst 99502.331002                       # average overall miss latency ((Tick/Count))
system.l2cache.overallAvgMissLatency::cpu.data 96416.542544                       # average overall miss latency ((Tick/Count))
system.l2cache.overallAvgMissLatency::total 96423.537384                       # average overall miss latency ((Tick/Count))
system.l2cache.blockedCycles::no_mshrs              0                       # number of cycles access was blocked (Cycle)
system.l2cache.blockedCycles::no_targets            0                       # number of cycles access was blocked (Cycle)
system.l2cache.blockedCauses::no_mshrs              0                       # number of times access was blocked (Count)
system.l2cache.blockedCauses::no_targets            0                       # number of times access was blocked (Count)
system.l2cache.avgBlocked::no_mshrs               nan                       # average number of cycles each access was blocked ((Cycle/Count))
system.l2cache.avgBlocked::no_targets             nan                       # average number of cycles each access was blocked ((Cycle/Count))
system.l2cache.writebacks::writebacks           78906                       # number of writebacks (Count)
system.l2cache.writebacks::total                78906                       # number of writebacks (Count)
system.l2cache.demandMshrMisses::cpu.inst         1716                       # number of demand (read+write) MSHR misses (Count)
system.l2cache.demandMshrMisses::cpu.data       755301                       # number of demand (read+write) MSHR misses (Count)
system.l2cache.demandMshrMisses::total         757017                       # number of demand (read+write) MSHR misses (Count)
system.l2cache.overallMshrMisses::cpu.inst         1716                       # number of overall MSHR misses (Count)
system.l2cache.overallMshrMisses::cpu.data       755301                       # number of overall MSHR misses (Count)
system.l2cache.overallMshrMisses::total        757017                       # number of overall MSHR misses (Count)
system.l2cache.demandMshrMissLatency::cpu.inst    136426000                       # number of demand (read+write) MSHR miss ticks (Tick)
system.l2cache.demandMshrMissLatency::cpu.data  57717491000                       # number of demand (read+write) MSHR miss ticks (Tick)
system.l2cache.demandMshrMissLatency::total  57853917000                       # number of demand (read+write) MSHR miss ticks (Tick)
system.l2cache.overallMshrMissLatency::cpu.inst    136426000                       # number of overall MSHR miss ticks (Tick)
system.l2cache.overallMshrMissLatency::cpu.data  57717491000                       # number of overall MSHR miss ticks (Tick)
system.l2cache.overallMshrMissLatency::total  57853917000                       # number of overall MSHR miss ticks (Tick)
system.l2cache.demandMshrMissRate::cpu.inst     0.970588                       # mshr miss ratio for demand accesses (Ratio)
system.l2cache.demandMshrMissRate::cpu.data     0.999083                       # mshr miss ratio for demand accesses (Ratio)
system.l2cache.demandMshrMissRate::total     0.999017                       # mshr miss ratio for demand accesses (Ratio)
system.l2cache.overallMshrMissRate::cpu.inst     0.970588                       # mshr miss ratio for overall accesses (Ratio)
system.l2cache.overallMshrMissRate::cpu.data     0.999083                       # mshr miss ratio for overall accesses (Ratio)
system.l2cache.overallMshrMissRate::total     0.999017                       # mshr miss ratio for overall accesses (Ratio)
system.l2cache.demandAvgMshrMissLatency::cpu.inst 79502.331002                       # average overall mshr miss latency ((Tick/Count))
system.l2cache.demandAvgMshrMissLatency::cpu.data 76416.542544                       # average overall mshr miss latency ((Tick/Count))
system.l2cache.demandAvgMshrMissLatency::total 76423.537384                       # average overall mshr miss latency ((Tick/Count))
system.l2cache.overallAvgMshrMissLatency::cpu.inst 79502.331002                       # average overall mshr miss latency ((Tick/Count))
system.l2cache.overallAvgMshrMissLatency::cpu.data 76416.542544                       # average overall mshr miss latency ((Tick/Count))
system.l2cache.overallAvgMshrMissLatency::total 76423.537384                       # average overall mshr miss latency ((Tick/Count))
system.l2cache.replacements                    823822                       # number of replacements (Count)
system.l2cache.CleanEvict.mshrMisses::writebacks       322618                       # number of CleanEvict MSHR misses (Count)
system.l2cache.CleanEvict.mshrMisses::total       322618                       # number of CleanEvict MSHR misses (Count)
system.l2cache.CleanEvict.mshrMissRate::writebacks          inf                       # mshr miss rate for CleanEvict accesses (Ratio)
system.l2cache.CleanEvict.mshrMissRate::total          inf                       # mshr miss rate for CleanEvict accesses (Ratio)
system.l2cache.ReadExReq.hits::cpu.data            78                       # number of ReadExReq hits (Count)
system.l2cache.ReadExReq.hits::total               78                       # number of ReadExReq hits (Count)
system.l2cache.ReadExReq.misses::cpu.data        14993                       # number of ReadExReq misses (Count)
system.l2cache.ReadExReq.misses::total          14993                       # number of ReadExReq misses (Count)
system.l2cache.ReadExReq.missLatency::cpu.data   1435916000                       # number of ReadExReq miss ticks (Tick)
system.l2cache.ReadExReq.missLatency::total   1435916000                       # number of ReadExReq miss ticks (Tick)
system.l2cache.ReadExReq.accesses::cpu.data        15071                       # number of ReadExReq accesses(hits+misses) (Count)
system.l2cache.ReadExReq.accesses::total        15071                       # number of ReadExReq accesses(hits+misses) (Count)
system.l2cache.ReadExReq.missRate::cpu.data     0.994824                       # miss rate for ReadExReq accesses (Ratio)
system.l2cache.ReadExReq.missRate::total     0.994824                       # miss rate for ReadExReq accesses (Ratio)
system.l2cache.ReadExReq.avgMissLatency::cpu.data 95772.427133                       # average ReadExReq miss latency ((Tick/Count))
system.l2cache.ReadExReq.avgMissLatency::total 95772.427133                       # average ReadExReq miss latency ((Tick/Count))
system.l2cache.ReadExReq.mshrMisses::cpu.data        14993                       # number of ReadExReq MSHR misses (Count)
system.l2cache.ReadExReq.mshrMisses::total        14993                       # number of ReadExReq MSHR misses (Count)
system.l2cache.ReadExReq.mshrMissLatency::cpu.data   1136056000                       # number of ReadExReq MSHR miss ticks (Tick)
system.l2cache.ReadExReq.mshrMissLatency::total   1136056000                       # number of ReadExReq MSHR miss ticks (Tick)
system.l2cache.ReadExReq.mshrMissRate::cpu.data     0.994824                       # mshr miss rate for ReadExReq accesses (Ratio)
system.l2cache.ReadExReq.mshrMissRate::total     0.994824                       # mshr miss rate for ReadExReq accesses (Ratio)
system.l2cache.ReadExReq.avgMshrMissLatency::cpu.data 75772.427133                       # average ReadExReq mshr miss latency ((Tick/Count))
system.l2cache.ReadExReq.avgMshrMissLatency::total 75772.427133                       # average ReadExReq mshr miss latency ((Tick/Count))
system.l2cache.ReadSharedReq.hits::cpu.inst           52                       # number of ReadSharedReq hits (Count)
system.l2cache.ReadSharedReq.hits::cpu.data          615                       # number of ReadSharedReq hits (Count)
system.l2cache.ReadSharedReq.hits::total          667                       # number of ReadSharedReq hits (Count)
system.l2cache.ReadSharedReq.misses::cpu.inst         1716                       # number of ReadSharedReq misses (Count)
system.l2cache.ReadSharedReq.misses::cpu.data       740308                       # number of ReadSharedReq misses (Count)
system.l2cache.ReadSharedReq.misses::total       742024                       # number of ReadSharedReq misses (Count)
system.l2cache.ReadSharedReq.missLatency::cpu.inst    170746000                       # number of ReadSharedReq miss ticks (Tick)
system.l2cache.ReadSharedReq.missLatency::cpu.data  71387595000                       # number of ReadSharedReq miss ticks (Tick)
system.l2cache.ReadSharedReq.missLatency::total  71558341000                       # number of ReadSharedReq miss ticks (Tick)
system.l2cache.ReadSharedReq.accesses::cpu.inst         1768                       # number of ReadSharedReq accesses(hits+misses) (Count)
system.l2cache.ReadSharedReq.accesses::cpu.data       740923                       # number of ReadSharedReq accesses(hits+misses) (Count)
system.l2cache.ReadSharedReq.accesses::total       742691                       # number of ReadSharedReq accesses(hits+misses) (Count)
system.l2cache.ReadSharedReq.missRate::cpu.inst     0.970588                       # miss rate for ReadSharedReq accesses (Ratio)
system.l2cache.ReadSharedReq.missRate::cpu.data     0.999170                       # miss rate for ReadSharedReq accesses (Ratio)
system.l2cache.ReadSharedReq.missRate::total     0.999102                       # miss rate for ReadSharedReq accesses (Ratio)
system.l2cache.ReadSharedReq.avgMissLatency::cpu.inst 99502.331002                       # average ReadSharedReq miss latency ((Tick/Count))
system.l2cache.ReadSharedReq.avgMissLatency::cpu.data 96429.587415                       # average ReadSharedReq miss latency ((Tick/Count))
system.l2cache.ReadSharedReq.avgMissLatency::total 96436.693422                       # average ReadSharedReq miss latency ((Tick/Count))
system.l2cache.ReadSharedReq.mshrMisses::cpu.inst         1716                       # number of ReadSharedReq MSHR misses (Count)
system.l2cache.ReadSharedReq.mshrMisses::cpu.data       740308                       # number of ReadSharedReq MSHR misses (Count)
system.l2cache.ReadSharedReq.mshrMisses::total       742024                       # number of ReadSharedReq MSHR misses (Count)
system.l2cache.ReadSharedReq.mshrMissLatency::cpu.inst    136426000                       # number of ReadSharedReq MSHR miss ticks (Tick)
system.l2cache.ReadSharedReq.mshrMissLatency::cpu.data  56581435000                       # number of ReadSharedReq MSHR miss ticks (Tick)
system.l2cache.ReadSharedReq.mshrMissLatency::total  56717861000                       # number of ReadSharedReq MSHR miss ticks (Tick)
system.l2cache.ReadSharedReq.mshrMissRate::cpu.inst     0.970588                       # mshr miss rate for ReadSharedReq accesses (Ratio)
system.l2cache.ReadSharedReq.mshrMissRate::cpu.data     0.999170                       # mshr miss rate for ReadSharedReq accesses (Ratio)
system.l2cache.ReadSharedReq.mshrMissRate::total     0.999102                       # mshr miss rate for ReadSharedReq accesses (Ratio)
system.l2cache.ReadSharedReq.avgMshrMissLatency::cpu.inst 79502.331002                       # average ReadSharedReq mshr miss latency ((Tick/Count))
system.l2cache.ReadSharedReq.avgMshrMissLatency::cpu.data 76429.587415                       # average ReadSharedReq mshr miss latency ((Tick/Count))
system.l2cache.ReadSharedReq.avgMshrMissLatency::total 76436.693422                       # average ReadSharedReq mshr miss latency ((Tick/Count))
system.l2cache.WritebackDirty.hits::writebacks        79296                       # number of WritebackDirty hits (Count)
system.l2cache.WritebackDirty.hits::total        79296                       # number of WritebackDirty hits (Count)
system.l2cache.WritebackDirty.accesses::writebacks        79296                       # number of WritebackDirty accesses(hits+misses) (Count)
system.l2cache.WritebackDirty.accesses::total        79296                       # number of WritebackDirty accesses(hits+misses) (Count)
system.l2cache.power_state.pwrStateResidencyTicks::UNDEFINED 282154598000                       # Cumulative time (in ticks) in various power states (Tick)
system.l2cache.tags.tagsInUse             1023.583178                       # Average ticks per tags in use ((Tick/Count))
system.l2cache.tags.totalRefs                 1191885                       # Total number of references to valid blocks. (Count)
system.l2cache.tags.sampledRefs                824846                       # Sample count of references to valid blocks. (Count)
system.l2cache.tags.avgRefs                  1.444979                       # Average number of references to valid blocks. ((Count/Count))
system.l2cache.tags.warmupTick                  86000                       # The tick when the warmup percentage was hit. (Tick)
system.l2cache.tags.occupancies::writebacks   233.058852                       # Average occupied blocks per tick, per requestor ((Count/Tick))
system.l2cache.tags.occupancies::cpu.inst     8.091130                       # Average occupied blocks per tick, per requestor ((Count/Tick))
system.l2cache.tags.occupancies::cpu.data   782.433196                       # Average occupied blocks per tick, per requestor ((Count/Tick))
system.l2cache.tags.avgOccs::writebacks      0.227597                       # Average percentage of cache occupancy ((Ratio/Tick))
system.l2cache.tags.avgOccs::cpu.inst        0.007901                       # Average percentage of cache occupancy ((Ratio/Tick))
system.l2cache.tags.avgOccs::cpu.data        0.764095                       # Average percentage of cache occupancy ((Ratio/Tick))
system.l2cache.tags.avgOccs::total           0.999593                       # Average percentage of cache occupancy ((Ratio/Tick))
system.l2cache.tags.occupanciesTaskId::1024         1024                       # Occupied blocks per task id (Count)
system.l2cache.tags.ageTaskId_1024::0              73                       # Occupied blocks per task id, per block age (Count)
system.l2cache.tags.ageTaskId_1024::1             240                       # Occupied blocks per task id, per block age (Count)
system.l2cache.tags.ageTaskId_1024::2             198                       # Occupied blocks per task id, per block age (Count)
system.l2cache.tags.ageTaskId_1024::3             282                       # Occupied blocks per task id, per block age (Count)
system.l2cache.tags.ageTaskId_1024::4             231                       # Occupied blocks per task id, per block age (Count)
system.l2cache.tags.ratioOccsTaskId::1024            1                       # Ratio of occupied blocks and all blocks, per task id (Ratio)
system.l2cache.tags.tagAccesses               3853852                       # Number of tag accesses (Count)
system.l2cache.tags.dataAccesses              3853852                       # Number of data accesses (Count)
system.l2cache.tags.power_state.pwrStateResidencyTicks::UNDEFINED 282154598000                       # Cumulative time (in ticks) in various power states (Tick)
system.mem_ctrl.avgPriority_writebacks::samples     78863.00                       # Average QoS priority value for accepted requests (Count)
system.mem_ctrl.avgPriority_cpu.inst::samples      1716.00                       # Average QoS priority value for accepted requests (Count)
system.mem_ctrl.avgPriority_cpu.data::samples    746918.00                       # Average QoS priority value for accepted requests (Count)
system.mem_ctrl.priorityMinLatency       0.000000018750                       # per QoS priority minimum request to response latency (Second)
system.mem_ctrl.priorityMaxLatency       0.016386748500                       # per QoS priority maximum request to response latency (Second)
system.mem_ctrl.numReadWriteTurnArounds          4385                       # Number of turnarounds from READ to WRITE (Count)
system.mem_ctrl.numWriteReadTurnArounds          4385                       # Number of turnarounds from WRITE to READ (Count)
system.mem_ctrl.numStayReadState              1648165                       # Number of times bus staying in READ state (Count)
system.mem_ctrl.numStayWriteState               74605                       # Number of times bus staying in WRITE state (Count)
system.mem_ctrl.readReqs                       757017                       # Number of read requests accepted (Count)
system.mem_ctrl.writeReqs                       78906                       # Number of write requests accepted (Count)
system.mem_ctrl.readBursts                     757017                       # Number of controller read bursts, including those serviced by the write queue (Count)
system.mem_ctrl.writeBursts                     78906                       # Number of controller write bursts, including those merged in the write queue (Count)
system.mem_ctrl.servicedByWrQ                    8383                       # Number of controller read bursts serviced by the write queue (Count)
system.mem_ctrl.mergedWrBursts                     43                       # Number of controller write bursts merged with an existing one (Count)
system.mem_ctrl.neitherReadNorWriteReqs             0                       # Number of requests that are neither read nor write (Count)
system.mem_ctrl.avgRdQLen                        1.00                       # Average read queue length when enqueuing ((Count/Tick))
system.mem_ctrl.avgWrQLen                       24.44                       # Average write queue length when enqueuing ((Count/Tick))
system.mem_ctrl.numRdRetry                          0                       # Number of times read queue was full causing retry (Count)
system.mem_ctrl.numWrRetry                          0                       # Number of times write queue was full causing retry (Count)
system.mem_ctrl.readPktSize::0                      0                       # Read request sizes (log2) (Count)
system.mem_ctrl.readPktSize::1                      0                       # Read request sizes (log2) (Count)
system.mem_ctrl.readPktSize::2                      0                       # Read request sizes (log2) (Count)
system.mem_ctrl.readPktSize::3                      0                       # Read request sizes (log2) (Count)
system.mem_ctrl.readPktSize::4                      0                       # Read request sizes (log2) (Count)
system.mem_ctrl.readPktSize::5                      0                       # Read request sizes (log2) (Count)
system.mem_ctrl.readPktSize::6                 757017                       # Read request sizes (log2) (Count)
system.mem_ctrl.writePktSize::0                     0                       # Write request sizes (log2) (Count)
system.mem_ctrl.writePktSize::1                     0                       # Write request sizes (log2) (Count)
system.mem_ctrl.writePktSize::2                     0                       # Write request sizes (log2) (Count)
system.mem_ctrl.writePktSize::3                     0                       # Write request sizes (log2) (Count)
system.mem_ctrl.writePktSize::4                     0                       # Write request sizes (log2) (Count)
system.mem_ctrl.writePktSize::5                     0                       # Write request sizes (log2) (Count)
system.mem_ctrl.writePktSize::6                 78906                       # Write request sizes (log2) (Count)
system.mem_ctrl.rdQLenPdf::0                   748631                       # What read queue length does an incoming req see (Count)
system.mem_ctrl.rdQLenPdf::1                        3                       # What read queue length does an incoming req see (Count)
system.mem_ctrl.rdQLenPdf::2                        0                       # What read queue length does an incoming req see (Count)
system.mem_ctrl.rdQLenPdf::3                        0                       # What read queue length does an incoming req see (Count)
system.mem_ctrl.rdQLenPdf::4                        0                       # What read queue length does an incoming req see (Count)
system.mem_ctrl.rdQLenPdf::5                        0                       # What read queue length does an incoming req see (Count)
system.mem_ctrl.rdQLenPdf::6                        0                       # What read queue length does an incoming req see (Count)
system.mem_ctrl.rdQLenPdf::7                        0                       # What read queue length does an incoming req see (Count)
system.mem_ctrl.rdQLenPdf::8                        0                       # What read queue length does an incoming req see (Count)
system.mem_ctrl.rdQLenPdf::9                        0                       # What read queue length does an incoming req see (Count)
system.mem_ctrl.rdQLenPdf::10                       0                       # What read queue length does an incoming req see (Count)
system.mem_ctrl.rdQLenPdf::11                       0                       # What read queue length does an incoming req see (Count)
system.mem_ctrl.rdQLenPdf::12                       0                       # What read queue length does an incoming req see (Count)
system.mem_ctrl.rdQLenPdf::13                       0                       # What read queue length does an incoming req see (Count)
system.mem_ctrl.rdQLenPdf::14                       0                       # What read queue length does an incoming req see (Count)
system.mem_ctrl.rdQLenPdf::15                       0                       # What read queue length does an incoming req see (Count)
system.mem_ctrl.rdQLenPdf::16                       0                       # What read queue length does an incoming req see (Count)
system.mem_ctrl.rdQLenPdf::17                       0                       # What read queue length does an incoming req see (Count)
system.mem_ctrl.rdQLenPdf::18                       0                       # What read queue length does an incoming req see (Count)
system.mem_ctrl.rdQLenPdf::19                       0                       # What read queue length does an incoming req see (Count)
system.mem_ctrl.rdQLenPdf::20                       0                       # What read queue length does an incoming req see (Count)
system.mem_ctrl.rdQLenPdf::21                       0                       # What read queue length does an incoming req see (Count)
system.mem_ctrl.rdQLenPdf::22                       0                       # What read queue length does an incoming req see (Count)
system.mem_ctrl.rdQLenPdf::23                       0                       # What read queue length does an incoming req see (Count)
system.mem_ctrl.rdQLenPdf::24                       0                       # What read queue length does an incoming req see (Count)
system.mem_ctrl.rdQLenPdf::25                       0                       # What read queue length does an incoming req see (Count)
system.mem_ctrl.rdQLenPdf::26                       0                       # What read queue length does an incoming req see (Count)
system.mem_ctrl.rdQLenPdf::27                       0                       # What read queue length does an incoming req see (Count)
system.mem_ctrl.rdQLenPdf::28                       0                       # What read queue length does an incoming req see (Count)
system.mem_ctrl.rdQLenPdf::29                       0                       # What read queue length does an incoming req see (Count)
system.mem_ctrl.rdQLenPdf::30                       0                       # What read queue length does an incoming req see (Count)
system.mem_ctrl.rdQLenPdf::31                       0                       # What read queue length does an incoming req see (Count)
system.mem_ctrl.wrQLenPdf::0                        1                       # What write queue length does an incoming req see (Count)
system.mem_ctrl.wrQLenPdf::1                        1                       # What write queue length does an incoming req see (Count)
system.mem_ctrl.wrQLenPdf::2                        1                       # What write queue length does an incoming req see (Count)
system.mem_ctrl.wrQLenPdf::3                        1                       # What write queue length does an incoming req see (Count)
system.mem_ctrl.wrQLenPdf::4                        1                       # What write queue length does an incoming req see (Count)
system.mem_ctrl.wrQLenPdf::5                        1                       # What write queue length does an incoming req see (Count)
system.mem_ctrl.wrQLenPdf::6                        1                       # What write queue length does an incoming req see (Count)
system.mem_ctrl.wrQLenPdf::7                        1                       # What write queue length does an incoming req see (Count)
system.mem_ctrl.wrQLenPdf::8                        1                       # What write queue length does an incoming req see (Count)
system.mem_ctrl.wrQLenPdf::9                        1                       # What write queue length does an incoming req see (Count)
system.mem_ctrl.wrQLenPdf::10                       1                       # What write queue length does an incoming req see (Count)
system.mem_ctrl.wrQLenPdf::11                       1                       # What write queue length does an incoming req see (Count)
system.mem_ctrl.wrQLenPdf::12                       1                       # What write queue length does an incoming req see (Count)
system.mem_ctrl.wrQLenPdf::13                       1                       # What write queue length does an incoming req see (Count)
system.mem_ctrl.wrQLenPdf::14                       1                       # What write queue length does an incoming req see (Count)
system.mem_ctrl.wrQLenPdf::15                    4310                       # What write queue length does an incoming req see (Count)
system.mem_ctrl.wrQLenPdf::16                    4314                       # What write queue length does an incoming req see (Count)
[...]
system.mem_ctrl.dram.bytesWritten::total      5049984                       # Number of bytes written to this memory (Byte)
system.mem_ctrl.dram.numReads::cpu.inst          1716                       # Number of read requests responded to by this memory (Count)
system.mem_ctrl.dram.numReads::cpu.data        755301                       # Number of read requests responded to by this memory (Count)
system.mem_ctrl.dram.numReads::total           757017                       # Number of read requests responded to by this memory (Count)
system.mem_ctrl.dram.numWrites::writebacks        78906                       # Number of write requests responded to by this memory (Count)
system.mem_ctrl.dram.numWrites::total           78906                       # Number of write requests responded to by this memory (Count)
system.mem_ctrl.dram.bwRead::cpu.inst          389233                       # Total read bandwidth from this memory ((Byte/Second))
system.mem_ctrl.dram.bwRead::cpu.data       171321908                       # Total read bandwidth from this memory ((Byte/Second))
system.mem_ctrl.dram.bwRead::total          171711141                       # Total read bandwidth from this memory ((Byte/Second))
system.mem_ctrl.dram.bwInstRead::cpu.inst       389233                       # Instruction read bandwidth from this memory ((Byte/Second))
system.mem_ctrl.dram.bwInstRead::total         389233                       # Instruction read bandwidth from this memory ((Byte/Second))
system.mem_ctrl.dram.bwWrite::writebacks     17897933                       # Write bandwidth from this memory ((Byte/Second))
system.mem_ctrl.dram.bwWrite::total          17897933                       # Write bandwidth from this memory ((Byte/Second))
system.mem_ctrl.dram.bwTotal::writebacks     17897933                       # Total bandwidth to/from this memory ((Byte/Second))
system.mem_ctrl.dram.bwTotal::cpu.inst         389233                       # Total bandwidth to/from this memory ((Byte/Second))
system.mem_ctrl.dram.bwTotal::cpu.data      171321908                       # Total bandwidth to/from this memory ((Byte/Second))
system.mem_ctrl.dram.bwTotal::total         189609074                       # Total bandwidth to/from this memory ((Byte/Second))
system.mem_ctrl.dram.readBursts                748634                       # Number of DRAM read bursts (Count)
system.mem_ctrl.dram.writeBursts                78843                       # Number of DRAM write bursts (Count)
system.mem_ctrl.dram.perBankRdBursts::0         43265                       # Per bank write bursts (Count)
system.mem_ctrl.dram.perBankRdBursts::1         45213                       # Per bank write bursts (Count)
system.mem_ctrl.dram.perBankRdBursts::2         47709                       # Per bank write bursts (Count)
system.mem_ctrl.dram.perBankRdBursts::3         45894                       # Per bank write bursts (Count)
system.mem_ctrl.dram.perBankRdBursts::4         45509                       # Per bank write bursts (Count)
system.mem_ctrl.dram.perBankRdBursts::5         46247                       # Per bank write bursts (Count)
system.mem_ctrl.dram.perBankRdBursts::6         47032                       # Per bank write bursts (Count)
system.mem_ctrl.dram.perBankRdBursts::7         47028                       # Per bank write bursts (Count)
system.mem_ctrl.dram.perBankRdBursts::8         46692                       # Per bank write bursts (Count)
system.mem_ctrl.dram.perBankRdBursts::9         45697                       # Per bank write bursts (Count)
system.mem_ctrl.dram.perBankRdBursts::10        46320                       # Per bank write bursts (Count)
system.mem_ctrl.dram.perBankRdBursts::11        45576                       # Per bank write bursts (Count)
system.mem_ctrl.dram.perBankRdBursts::12        45736                       # Per bank write bursts (Count)
system.mem_ctrl.dram.perBankRdBursts::13        51516                       # Per bank write bursts (Count)
system.mem_ctrl.dram.perBankRdBursts::14        52272                       # Per bank write bursts (Count)
system.mem_ctrl.dram.perBankRdBursts::15        46928                       # Per bank write bursts (Count)
system.mem_ctrl.dram.perBankWrBursts::0          4627                       # Per bank write bursts (Count)
system.mem_ctrl.dram.perBankWrBursts::1          4680                       # Per bank write bursts (Count)
system.mem_ctrl.dram.perBankWrBursts::2          5424                       # Per bank write bursts (Count)
system.mem_ctrl.dram.perBankWrBursts::3          4685                       # Per bank write bursts (Count)
system.mem_ctrl.dram.perBankWrBursts::4          4752                       # Per bank write bursts (Count)
system.mem_ctrl.dram.perBankWrBursts::5          4813                       # Per bank write bursts (Count)
system.mem_ctrl.dram.perBankWrBursts::6          4748                       # Per bank write bursts (Count)
system.mem_ctrl.dram.perBankWrBursts::7          4793                       # Per bank write bursts (Count)
system.mem_ctrl.dram.perBankWrBursts::8          4821                       # Per bank write bursts (Count)
system.mem_ctrl.dram.perBankWrBursts::9          4655                       # Per bank write bursts (Count)
system.mem_ctrl.dram.perBankWrBursts::10         4747                       # Per bank write bursts (Count)
system.mem_ctrl.dram.perBankWrBursts::11         4675                       # Per bank write bursts (Count)
system.mem_ctrl.dram.perBankWrBursts::12         4684                       # Per bank write bursts (Count)
system.mem_ctrl.dram.perBankWrBursts::13         5548                       # Per bank write bursts (Count)
system.mem_ctrl.dram.perBankWrBursts::14         5798                       # Per bank write bursts (Count)
system.mem_ctrl.dram.perBankWrBursts::15         5393                       # Per bank write bursts (Count)
system.mem_ctrl.dram.totQLat               5077333000                       # Total ticks spent queuing (Tick)
system.mem_ctrl.dram.totBusLat             3743170000                       # Total ticks spent in databus transfers (Tick)
system.mem_ctrl.dram.totMemAccLat         19114220500                       # Total ticks spent from burst creation until serviced by the DRAM (Tick)
system.mem_ctrl.dram.avgQLat                  6782.13                       # Average queueing delay per DRAM burst ((Tick/Count))
system.mem_ctrl.dram.avgBusLat                5000.00                       # Average bus latency per DRAM burst ((Tick/Count))
system.mem_ctrl.dram.avgMemAccLat            25532.13                       # Average memory access latency per DRAM burst ((Tick/Count))
system.mem_ctrl.dram.readRowHits               628762                       # Number of row buffer hits during reads (Count)
system.mem_ctrl.dram.writeRowHits               68662                       # Number of row buffer hits during writes (Count)
system.mem_ctrl.dram.readRowHitRate             83.99                       # Row buffer hit rate for reads (Ratio)
system.mem_ctrl.dram.writeRowHitRate            87.09                       # Row buffer hit rate for writes (Ratio)
system.mem_ctrl.dram.bytesPerActivate::samples       130046                       # Bytes accessed per row activation (Byte)
system.mem_ctrl.dram.bytesPerActivate::mean   407.222306                       # Bytes accessed per row activation (Byte)
system.mem_ctrl.dram.bytesPerActivate::gmean   339.712510                       # Bytes accessed per row activation (Byte)
system.mem_ctrl.dram.bytesPerActivate::stdev   196.584663                       # Bytes accessed per row activation (Byte)
system.mem_ctrl.dram.bytesPerActivate::0-127        12209      9.39%      9.39% # Bytes accessed per row activation (Byte)
system.mem_ctrl.dram.bytesPerActivate::128-255        16970     13.05%     22.44% # Bytes accessed per row activation (Byte)
system.mem_ctrl.dram.bytesPerActivate::256-383        12540      9.64%     32.08% # Bytes accessed per row activation (Byte)
system.mem_ctrl.dram.bytesPerActivate::384-511        17452     13.42%     45.50% # Bytes accessed per row activation (Byte)
system.mem_ctrl.dram.bytesPerActivate::512-639        66707     51.29%     96.79% # Bytes accessed per row activation (Byte)
system.mem_ctrl.dram.bytesPerActivate::640-767          215      0.17%     96.96% # Bytes accessed per row activation (Byte)
system.mem_ctrl.dram.bytesPerActivate::768-895          203      0.16%     97.12% # Bytes accessed per row activation (Byte)
system.mem_ctrl.dram.bytesPerActivate::896-1023          218      0.17%     97.28% # Bytes accessed per row activation (Byte)
system.mem_ctrl.dram.bytesPerActivate::1024-1151         3532      2.72%    100.00% # Bytes accessed per row activation (Byte)
system.mem_ctrl.dram.bytesPerActivate::total       130046                       # Bytes accessed per row activation (Byte)
system.mem_ctrl.dram.dramBytesRead           47912576                       # Total bytes read (Byte)
system.mem_ctrl.dram.dramBytesWritten         5045952                       # Total bytes written (Byte)
system.mem_ctrl.dram.avgRdBW               169.809659                       # Average DRAM read bandwidth in MiBytes/s ((Byte/Second))
system.mem_ctrl.dram.avgWrBW                17.883643                       # Average DRAM write bandwidth in MiBytes/s ((Byte/Second))
system.mem_ctrl.dram.peakBW                  12800.00                       # Theoretical peak bandwidth in MiByte/s ((Byte/Second))
system.mem_ctrl.dram.busUtil                     1.47                       # Data bus utilization in percentage (Ratio)
system.mem_ctrl.dram.busUtilRead                 1.33                       # Data bus utilization in percentage for reads (Ratio)
system.mem_ctrl.dram.busUtilWrite                0.14                       # Data bus utilization in percentage for writes (Ratio)
system.mem_ctrl.dram.pageHitRate                84.28                       # Row buffer hit rate, read and write combined (Ratio)
system.mem_ctrl.dram.power_state.pwrStateResidencyTicks::UNDEFINED 282154598000                       # Cumulative time (in ticks) in various power states (Tick)
system.mem_ctrl.dram.rank0.actEnergy        461986560                       # Energy for activate commands per rank (pJ) (Joule)
system.mem_ctrl.dram.rank0.preEnergy        245536500                       # Energy for precharge commands per rank (pJ) (Joule)
system.mem_ctrl.dram.rank0.readEnergy      2626784580                       # Energy for read commands per rank (pJ) (Joule)
system.mem_ctrl.dram.rank0.writeEnergy      201084840                       # Energy for write commands per rank (pJ) (Joule)
system.mem_ctrl.dram.rank0.refreshEnergy 22272709680.000004                       # Energy for refresh commands per rank (pJ) (Joule)
system.mem_ctrl.dram.rank0.actBackEnergy  76689313350                       # Energy for active background per rank (pJ) (Joule)
system.mem_ctrl.dram.rank0.preBackEnergy  43766891520                       # Energy for precharge background per rank (pJ) (Joule)
system.mem_ctrl.dram.rank0.actPowerDownEnergy            0                       # Energy for active power-down per rank (pJ) (Joule)
system.mem_ctrl.dram.rank0.prePowerDownEnergy            0                       # Energy for precharge power-down per rank (pJ) (Joule)
system.mem_ctrl.dram.rank0.selfRefreshEnergy            0                       # Energy for self refresh per rank (pJ) (Joule)
system.mem_ctrl.dram.rank0.totalEnergy   146264307030                       # Total energy per rank (pJ) (Joule)
system.mem_ctrl.dram.rank0.averagePower    518.383567                       # Core power per rank (mW) (Watt)
system.mem_ctrl.dram.rank0.totalIdleTime            0                       # Total Idle time Per DRAM Rank (Tick)
system.mem_ctrl.dram.rank0.pwrStateTime::IDLE 113096314000                       # Time in different power states (Tick)
system.mem_ctrl.dram.rank0.pwrStateTime::REF   9421620000                       # Time in different power states (Tick)
system.mem_ctrl.dram.rank0.pwrStateTime::SREF            0                       # Time in different power states (Tick)
system.mem_ctrl.dram.rank0.pwrStateTime::PRE_PDN            0                       # Time in different power states (Tick)
system.mem_ctrl.dram.rank0.pwrStateTime::ACT 159636664000                       # Time in different power states (Tick)
system.mem_ctrl.dram.rank0.pwrStateTime::ACT_PDN            0                       # Time in different power states (Tick)
system.mem_ctrl.dram.rank1.actEnergy        466591860                       # Energy for activate commands per rank (pJ) (Joule)
system.mem_ctrl.dram.rank1.preEnergy        247988070                       # Energy for precharge commands per rank (pJ) (Joule)
system.mem_ctrl.dram.rank1.readEnergy      2718462180                       # Energy for read commands per rank (pJ) (Joule)
system.mem_ctrl.dram.rank1.writeEnergy      210475620                       # Energy for write commands per rank (pJ) (Joule)
system.mem_ctrl.dram.rank1.refreshEnergy 22272709680.000004                       # Energy for refresh commands per rank (pJ) (Joule)
system.mem_ctrl.dram.rank1.actBackEnergy  77612092620                       # Energy for active background per rank (pJ) (Joule)
system.mem_ctrl.dram.rank1.preBackEnergy  42989814240                       # Energy for precharge background per rank (pJ) (Joule)
system.mem_ctrl.dram.rank1.actPowerDownEnergy            0                       # Energy for active power-down per rank (pJ) (Joule)
system.mem_ctrl.dram.rank1.prePowerDownEnergy            0                       # Energy for precharge power-down per rank (pJ) (Joule)
system.mem_ctrl.dram.rank1.selfRefreshEnergy            0                       # Energy for self refresh per rank (pJ) (Joule)
system.mem_ctrl.dram.rank1.totalEnergy   146518134270                       # Total energy per rank (pJ) (Joule)
system.mem_ctrl.dram.rank1.averagePower    519.283171                       # Core power per rank (mW) (Watt)
system.mem_ctrl.dram.rank1.totalIdleTime            0                       # Total Idle time Per DRAM Rank (Tick)
system.mem_ctrl.dram.rank1.pwrStateTime::IDLE 111076901500                       # Time in different power states (Tick)
system.mem_ctrl.dram.rank1.pwrStateTime::REF   9421620000                       # Time in different power states (Tick)
system.mem_ctrl.dram.rank1.pwrStateTime::SREF            0                       # Time in different power states (Tick)
system.mem_ctrl.dram.rank1.pwrStateTime::PRE_PDN            0                       # Time in different power states (Tick)
system.mem_ctrl.dram.rank1.pwrStateTime::ACT 161656076500                       # Time in different power states (Tick)
system.mem_ctrl.dram.rank1.pwrStateTime::ACT_PDN            0                       # Time in different power states (Tick)
system.mem_ctrl.power_state.pwrStateResidencyTicks::UNDEFINED 282154598000                       # Cumulative time (in ticks) in various power states (Tick)
system.membus.transDist::ReadResp              742024                       # Transaction distribution (Count)
system.membus.transDist::WritebackDirty         78906                       # Transaction distribution (Count)
system.membus.transDist::CleanEvict            676655                       # Transaction distribution (Count)
system.membus.transDist::ReadExReq              14993                       # Transaction distribution (Count)
system.membus.transDist::ReadExResp             14993                       # Transaction distribution (Count)
system.membus.transDist::ReadSharedReq         742024                       # Transaction distribution (Count)
system.membus.pktCount_system.l2cache.mem_side_port::system.mem_ctrl.port      2269595                       # Packet count per connected requestor and responder (Count)
system.membus.pktCount_system.l2cache.mem_side_port::total      2269595                       # Packet count per connected requestor and responder (Count)
system.membus.pktCount::total                 2269595                       # Packet count per connected requestor and responder (Count)
system.membus.pktSize_system.l2cache.mem_side_port::system.mem_ctrl.port     53499072                       # Cumulative packet size per connected requestor and responder (Byte)
system.membus.pktSize_system.l2cache.mem_side_port::total     53499072                       # Cumulative packet size per connected requestor and responder (Byte)
system.membus.pktSize::total                 53499072                       # Cumulative packet size per connected requestor and responder (Byte)
system.membus.snoops                                0                       # Total snoops (Count)
system.membus.snoopTraffic                          0                       # Total snoop traffic (Byte)
system.membus.snoopFanout::samples             757017                       # Request fanout histogram (Count)
system.membus.snoopFanout::mean                     0                       # Request fanout histogram (Count)
system.membus.snoopFanout::stdev                    0                       # Request fanout histogram (Count)
system.membus.snoopFanout::underflows               0      0.00%      0.00% # Request fanout histogram (Count)
system.membus.snoopFanout::0                   757017    100.00%    100.00% # Request fanout histogram (Count)
system.membus.snoopFanout::1                        0      0.00%    100.00% # Request fanout histogram (Count)
system.membus.snoopFanout::overflows                0      0.00%    100.00% # Request fanout histogram (Count)
system.membus.snoopFanout::min_value                0                       # Request fanout histogram (Count)
system.membus.snoopFanout::max_value                0                       # Request fanout histogram (Count)
system.membus.snoopFanout::total               757017                       # Request fanout histogram (Count)
system.membus.power_state.pwrStateResidencyTicks::UNDEFINED 282154598000                       # Cumulative time (in ticks) in various power states (Tick)
system.membus.reqLayer2.occupancy          1828202000                       # Layer occupancy (ticks) (Tick)
system.membus.reqLayer2.utilization               0.0                       # Layer utilization (Ratio)
system.membus.respLayer0.occupancy         4000672500                       # Layer occupancy (ticks) (Tick)
system.membus.respLayer0.utilization              0.0                       # Layer utilization (Ratio)
system.membus.snoop_filter.totRequests        1512578                       # Total number of requests made to the snoop filter. (Count)
system.membus.snoop_filter.hitSingleRequests       755561                       # Number of requests hitting in the snoop filter with a single holder of the requested data. (Count)
system.membus.snoop_filter.hitMultiRequests            0                       # Number of requests hitting in the snoop filter with multiple (>1) holders of the requested data. (Count)
system.membus.snoop_filter.totSnoops                0                       # Total number of snoops made to the snoop filter. (Count)
system.membus.snoop_filter.hitSingleSnoops            0                       # Number of snoops hitting in the snoop filter with a single holder of the requested data. (Count)
system.membus.snoop_filter.hitMultiSnoops            0                       # Number of snoops hitting in the snoop filter with multiple (>1) holders of the requested data. (Count)
system.workload.inst.arm                            0                       # number of arm instructions executed (Count)
system.workload.inst.quiesce                        0                       # number of quiesce instructions executed (Count)

---------- End Simulation Statistics   ----------
