
---------- Begin Simulation Statistics ----------
simSeconds                                   0.145290                       # Number of seconds simulated (Second)
simTicks                                 145289592000                       # Number of ticks simulated (Tick)
finalTick                                145289592000                       # Number of ticks from beginning of simulation (restored from checkpoints and never reset) (Tick)
simFreq                                  1000000000000                       # The number of ticks per simulated second ((Tick/Second))
hostSeconds                                     63.97                       # Real time elapsed on the host (Second)
hostTickRate                               2271320066                       # The number of ticks simulated per host second (ticks/s) ((Tick/Second))
hostMemory                                     699204                       # Number of bytes of host memory used (Byte)
simInsts                                     26301745                       # Number of instructions simulated (Count)
simOps                                       39615607                       # Number of ops (including micro ops) simulated (Count)
hostInstRate                                   411169                       # Simulator instruction rate (inst/s) ((Count/Second))
hostOpRate                                     619300                       # Simulator op (including micro ops) rate (op/s) ((Count/Second))
system.clk_domain.clock                          1000                       # Clock period in ticks (Tick)
system.clk_domain.voltage_domain.voltage            1                       # Voltage in Volts (Volt)
system.cpu.numCycles                        145289592                       # Number of cpu cycles simulated (Cycle)
system.cpu.cpi                               5.523927                       # CPI: cycles per instruction (core level) ((Cycle/Count))
system.cpu.ipc                               0.181031                       # IPC: instructions per cycle (core level) ((Count/Cycle))
system.cpu.numWorkItemsStarted                      0                       # Number of work items this cpu started (Count)
system.cpu.numWorkItemsCompleted                    0                       # Number of work items this cpu completed (Count)
system.cpu.commitStats0.numInsts             26301867                       # Number of instructions committed (thread level) (Count)
system.cpu.commitStats0.numOps               39615872                       # Number of ops (including micro ops) committed (thread level) (Count)
system.cpu.commitStats0.numInstsNotNOP              0                       # Number of instructions committed excluding NOPs or prefetches (Count)
system.cpu.commitStats0.numOpsNotNOP                0                       # Number of Ops (including micro ops) Simulated (Count)
system.cpu.commitStats0.cpi                  5.523927                       # CPI: cycles per instruction (thread level) ((Cycle/Count))
system.cpu.commitStats0.ipc                  0.181031                       # IPC: instructions per cycle (thread level) ((Count/Cycle))
system.cpu.commitStats0.numMemRefs                  0                       # Number of memory references committed (Count)
system.cpu.commitStats0.numFpInsts            9264508                       # Number of float instructions (Count)
system.cpu.commitStats0.numIntInsts          34038814                       # Number of integer instructions (Count)
system.cpu.commitStats0.numLoadInsts         11240248                       # Number of load instructions (Count)
system.cpu.commitStats0.numStoreInsts         2412994                       # Number of store instructions (Count)
system.cpu.commitStats0.numVecInsts                 0                       # Number of vector instructions (Count)
system.cpu.commitStats0.committedInstType::No_OpClass       236185      0.60%      0.60% # Class of committed instruction. (Count)
system.cpu.commitStats0.committedInstType::IntAlu     20773995     52.44%     53.03% # Class of committed instruction. (Count)
system.cpu.commitStats0.committedInstType::IntMult         9466      0.02%     53.06% # Class of committed instruction. (Count)
system.cpu.commitStats0.committedInstType::IntDiv         1799      0.00%     53.06% # Class of committed instruction. (Count)
system.cpu.commitStats0.committedInstType::FloatAdd      2627954      6.63%     59.70% # Class of committed instruction. (Count)
system.cpu.commitStats0.committedInstType::FloatCmp            0      0.00%     59.70% # Class of committed instruction. (Count)
system.cpu.commitStats0.committedInstType::FloatCvt           32      0.00%     59.70% # Class of committed instruction. (Count)
system.cpu.commitStats0.committedInstType::FloatMult            0      0.00%     59.70% # Class of committed instruction. (Count)
system.cpu.commitStats0.committedInstType::FloatMultAcc            0      0.00%     59.70% # Class of committed instruction. (Count)
system.cpu.commitStats0.committedInstType::FloatDiv            0      0.00%     59.70% # Class of committed instruction. (Count)
system.cpu.commitStats0.committedInstType::FloatMisc            0      0.00%     59.70% # Class of committed instruction. (Count)
system.cpu.commitStats0.committedInstType::FloatSqrt            0      0.00%     59.70% # Class of committed instruction. (Count)
system.cpu.commitStats0.committedInstType::SimdAdd          572      0.00%     59.70% # Class of committed instruction. (Count)
system.cpu.commitStats0.committedInstType::SimdAddAcc            0      0.00%     59.70% # Class of committed instruction. (Count)
system.cpu.commitStats0.committedInstType::SimdAlu       123812      0.31%     60.01% # Class of committed instruction. (Count)
system.cpu.commitStats0.committedInstType::SimdCmp            0      0.00%     60.01% # Class of committed instruction. (Count)
system.cpu.commitStats0.committedInstType::SimdCvt         1494      0.00%     60.01% # Class of committed instruction. (Count)
system.cpu.commitStats0.committedInstType::SimdMisc       163397      0.41%     60.43% # Class of committed instruction. (Count)
system.cpu.commitStats0.committedInstType::SimdMult            0      0.00%     60.43% # Class of committed instruction. (Count)
system.cpu.commitStats0.committedInstType::SimdMultAcc            0      0.00%     60.43% # Class of committed instruction. (Count)
system.cpu.commitStats0.committedInstType::SimdMatMultAcc            0      0.00%     60.43% # Class of committed instruction. (Count)
system.cpu.commitStats0.committedInstType::SimdShift          226      0.00%     60.43% # Class of committed instruction. (Count)
system.cpu.commitStats0.committedInstType::SimdShiftAcc            0      0.00%     60.43% # Class of committed instruction. (Count)
system.cpu.commitStats0.committedInstType::SimdDiv            0      0.00%     60.43% # Class of committed instruction. (Count)
system.cpu.commitStats0.committedInstType::SimdSqrt            0      0.00%     60.43% # Class of committed instruction. (Count)
system.cpu.commitStats0.committedInstType::SimdFloatAdd       825574      2.08%     62.51% # Class of committed instruction. (Count)
system.cpu.commitStats0.committedInstType::SimdFloatAlu            0      0.00%     62.51% # Class of committed instruction. (Count)
system.cpu.commitStats0.committedInstType::SimdFloatCmp            0      0.00%     62.51% # Class of committed instruction. (Count)
system.cpu.commitStats0.committedInstType::SimdFloatCvt        56598      0.14%     62.65% # Class of committed instruction. (Count)
system.cpu.commitStats0.committedInstType::SimdFloatDiv        56040      0.14%     62.80% # Class of committed instruction. (Count)
system.cpu.commitStats0.committedInstType::SimdFloatMisc            0      0.00%     62.80% # Class of committed instruction. (Count)
system.cpu.commitStats0.committedInstType::SimdFloatMult      1085486      2.74%     65.54% # Class of committed instruction. (Count)
system.cpu.commitStats0.committedInstType::SimdFloatMultAcc            0      0.00%     65.54% # Class of committed instruction. (Count)
system.cpu.commitStats0.committedInstType::SimdFloatMatMultAcc            0      0.00%     65.54% # Class of committed instruction. (Count)
system.cpu.commitStats0.committedInstType::SimdFloatSqrt            0      0.00%     65.54% # Class of committed instruction. (Count)
system.cpu.commitStats0.committedInstType::SimdReduceAdd            0      0.00%     65.54% # Class of committed instruction. (Count)
system.cpu.commitStats0.committedInstType::SimdReduceAlu            0      0.00%     65.54% # Class of committed instruction. (Count)
system.cpu.commitStats0.committedInstType::SimdReduceCmp            0      0.00%     65.54% # Class of committed instruction. (Count)
system.cpu.commitStats0.committedInstType::SimdFloatReduceAdd            0      0.00%     65.54% # Class of committed instruction. (Count)
system.cpu.commitStats0.committedInstType::SimdFloatReduceCmp            0      0.00%     65.54% # Class of committed instruction. (Count)
system.cpu.commitStats0.committedInstType::SimdAes            0      0.00%     65.54% # Class of committed instruction. (Count)
system.cpu.commitStats0.committedInstType::SimdAesMix            0      0.00%     65.54% # Class of committed instruction. (Count)
system.cpu.commitStats0.committedInstType::SimdSha1Hash            0      0.00%     65.54% # Class of committed instruction. (Count)
system.cpu.commitStats0.committedInstType::SimdSha1Hash2            0      0.00%     65.54% # Class of committed instruction. (Count)
system.cpu.commitStats0.committedInstType::SimdSha256Hash            0      0.00%     65.54% # Class of committed instruction. (Count)
system.cpu.commitStats0.committedInstType::SimdSha256Hash2            0      0.00%     65.54% # Class of committed instruction. (Count)
system.cpu.commitStats0.committedInstType::SimdShaSigma2            0      0.00%     65.54% # Class of committed instruction. (Count)
system.cpu.commitStats0.committedInstType::SimdShaSigma3            0      0.00%     65.54% # Class of committed instruction. (Count)
system.cpu.commitStats0.committedInstType::SimdPredAlu            0      0.00%     65.54% # Class of committed instruction. (Count)
system.cpu.commitStats0.committedInstType::Matrix            0      0.00%     65.54% # Class of committed instruction. (Count)
system.cpu.commitStats0.committedInstType::MatrixMov            0      0.00%     65.54% # Class of committed instruction. (Count)
system.cpu.commitStats0.committedInstType::MatrixOP            0      0.00%     65.54% # Class of committed instruction. (Count)
system.cpu.commitStats0.committedInstType::MemRead      8458245     21.35%     86.89% # Class of committed instruction. (Count)
system.cpu.commitStats0.committedInstType::MemWrite      1433097      3.62%     90.50% # Class of committed instruction. (Count)
system.cpu.commitStats0.committedInstType::FloatMemRead      2782003      7.02%     97.53% # Class of committed instruction. (Count)
system.cpu.commitStats0.committedInstType::FloatMemWrite       979897      2.47%    100.00% # Class of committed instruction. (Count)
system.cpu.commitStats0.committedInstType::IprAccess            0      0.00%    100.00% # Class of committed instruction. (Count)
system.cpu.commitStats0.committedInstType::InstPrefetch            0      0.00%    100.00% # Class of committed instruction. (Count)
system.cpu.commitStats0.committedInstType::SimdUnitStrideLoad            0      0.00%    100.00% # Class of committed instruction. (Count)
system.cpu.commitStats0.committedInstType::SimdUnitStrideStore            0      0.00%    100.00% # Class of committed instruction. (Count)
system.cpu.commitStats0.committedInstType::SimdUnitStrideMaskLoad            0      0.00%    100.00% # Class of committed instruction. (Count)
system.cpu.commitStats0.committedInstType::SimdUnitStrideMaskStore            0      0.00%    100.00% # Class of committed instruction. (Count)
system.cpu.commitStats0.committedInstType::SimdStridedLoad            0      0.00%    100.00% # Class of committed instruction. (Count)
system.cpu.commitStats0.committedInstType::SimdStridedStore            0      0.00%    100.00% # Class of committed instruction. (Count)
system.cpu.commitStats0.committedInstType::SimdIndexedLoad            0      0.00%    100.00% # Class of committed instruction. (Count)
system.cpu.commitStats0.committedInstType::SimdIndexedStore            0      0.00%    100.00% # Class of committed instruction. (Count)
system.cpu.commitStats0.committedInstType::SimdWholeRegisterLoad            0      0.00%    100.00% # Class of committed instruction. (Count)
system.cpu.commitStats0.committedInstType::SimdWholeRegisterStore            0      0.00%    100.00% # Class of committed instruction. (Count)
system.cpu.commitStats0.committedInstType::SimdUnitStrideFaultOnlyFirstLoad            0      0.00%    100.00% # Class of committed instruction. (Count)
system.cpu.commitStats0.committedInstType::SimdUnitStrideSegmentedLoad            0      0.00%    100.00% # Class of committed instruction. (Count)
system.cpu.commitStats0.committedInstType::SimdUnitStrideSegmentedStore            0      0.00%    100.00% # Class of committed instruction. (Count)
system.cpu.commitStats0.committedInstType::SimdExt            0      0.00%    100.00% # Class of committed instruction. (Count)
system.cpu.commitStats0.committedInstType::SimdFloatExt            0      0.00%    100.00% # Class of committed instruction. (Count)
system.cpu.commitStats0.committedInstType::SimdConfig            0      0.00%    100.00% # Class of committed instruction. (Count)
system.cpu.commitStats0.committedInstType::total     39615872                       # Class of committed instruction. (Count)
system.cpu.commitStats0.committedControl::IsControl      1879104                       # Class of control type instructions committed (Count)
system.cpu.commitStats0.committedControl::IsDirectControl      1638154                       # Class of control type instructions committed (Count)
system.cpu.commitStats0.committedControl::IsIndirectControl       240922                       # Class of control type instructions committed (Count)
system.cpu.commitStats0.committedControl::IsCondControl      1397364                       # Class of control type instructions committed (Count)
system.cpu.commitStats0.committedControl::IsUncondControl       481712                       # Class of control type instructions committed (Count)
system.cpu.commitStats0.committedControl::IsCall       169605                       # Class of control type instructions committed (Count)
system.cpu.commitStats0.committedControl::IsReturn       169601                       # Class of control type instructions committed (Count)
system.cpu.dcache.demandHits::cpu.data       13269265                       # number of demand (read+write) hits (Count)
system.cpu.dcache.demandHits::total          13269265                       # number of demand (read+write) hits (Count)
system.cpu.dcache.overallHits::cpu.data      13269265                       # number of overall hits (Count)
system.cpu.dcache.overallHits::total         13269265                       # number of overall hits (Count)
system.cpu.dcache.demandMisses::cpu.data       383813                       # number of demand (read+write) misses (Count)
system.cpu.dcache.demandMisses::total          383813                       # number of demand (read+write) misses (Count)
system.cpu.dcache.overallMisses::cpu.data       383813                       # number of overall misses (Count)
system.cpu.dcache.overallMisses::total         383813                       # number of overall misses (Count)
system.cpu.dcache.demandMissLatency::cpu.data  39183339000                       # number of demand (read+write) miss ticks (Tick)
system.cpu.dcache.demandMissLatency::total  39183339000                       # number of demand (read+write) miss ticks (Tick)
system.cpu.dcache.overallMissLatency::cpu.data  39183339000                       # number of overall miss ticks (Tick)
system.cpu.dcache.overallMissLatency::total  39183339000                       # number of overall miss ticks (Tick)
system.cpu.dcache.demandAccesses::cpu.data     13653078                       # number of demand (read+write) accesses (Count)
system.cpu.dcache.demandAccesses::total      13653078                       # number of demand (read+write) accesses (Count)
system.cpu.dcache.overallAccesses::cpu.data     13653078                       # number of overall (read+write) accesses (Count)
system.cpu.dcache.overallAccesses::total     13653078                       # number of overall (read+write) accesses (Count)
system.cpu.dcache.demandMissRate::cpu.data     0.028112                       # miss rate for demand accesses (Ratio)
system.cpu.dcache.demandMissRate::total      0.028112                       # miss rate for demand accesses (Ratio)
system.cpu.dcache.overallMissRate::cpu.data     0.028112                       # miss rate for overall accesses (Ratio)
system.cpu.dcache.overallMissRate::total     0.028112                       # miss rate for overall accesses (Ratio)
system.cpu.dcache.demandAvgMissLatency::cpu.data 102089.660850                       # average overall miss latency in ticks ((Tick/Count))
system.cpu.dcache.demandAvgMissLatency::total 102089.660850                       # average overall miss latency in ticks ((Tick/Count))
system.cpu.dcache.overallAvgMissLatency::cpu.data 102089.660850                       # average overall miss latency ((Tick/Count))
system.cpu.dcache.overallAvgMissLatency::total 102089.660850                       # average overall miss latency ((Tick/Count))
system.cpu.dcache.blockedCycles::no_mshrs            0                       # number of cycles access was blocked (Cycle)
system.cpu.dcache.blockedCycles::no_targets            0                       # number of cycles access was blocked (Cycle)
system.cpu.dcache.blockedCauses::no_mshrs            0                       # number of times access was blocked (Count)
system.cpu.dcache.blockedCauses::no_targets            0                       # number of times access was blocked (Count)
system.cpu.dcache.avgBlocked::no_mshrs            nan                       # average number of cycles each access was blocked ((Cycle/Count))
system.cpu.dcache.avgBlocked::no_targets          nan                       # average number of cycles each access was blocked ((Cycle/Count))
system.cpu.dcache.writebacks::writebacks        40696                       # number of writebacks (Count)
system.cpu.dcache.writebacks::total             40696                       # number of writebacks (Count)
system.cpu.dcache.demandMshrMisses::cpu.data       383813                       # number of demand (read+write) MSHR misses (Count)
system.cpu.dcache.demandMshrMisses::total       383813                       # number of demand (read+write) MSHR misses (Count)
system.cpu.dcache.overallMshrMisses::cpu.data       383813                       # number of overall MSHR misses (Count)
system.cpu.dcache.overallMshrMisses::total       383813                       # number of overall MSHR misses (Count)
system.cpu.dcache.demandMshrMissLatency::cpu.data  38415713000                       # number of demand (read+write) MSHR miss ticks (Tick)
system.cpu.dcache.demandMshrMissLatency::total  38415713000                       # number of demand (read+write) MSHR miss ticks (Tick)
system.cpu.dcache.overallMshrMissLatency::cpu.data  38415713000                       # number of overall MSHR miss ticks (Tick)
system.cpu.dcache.overallMshrMissLatency::total  38415713000                       # number of overall MSHR miss ticks (Tick)
system.cpu.dcache.demandMshrMissRate::cpu.data     0.028112                       # mshr miss ratio for demand accesses (Ratio)
system.cpu.dcache.demandMshrMissRate::total     0.028112                       # mshr miss ratio for demand accesses (Ratio)
system.cpu.dcache.overallMshrMissRate::cpu.data     0.028112                       # mshr miss ratio for overall accesses (Ratio)
system.cpu.dcache.overallMshrMissRate::total     0.028112                       # mshr miss ratio for overall accesses (Ratio)
system.cpu.dcache.demandAvgMshrMissLatency::cpu.data 100089.660850                       # average overall mshr miss latency ((Tick/Count))
system.cpu.dcache.demandAvgMshrMissLatency::total 100089.660850                       # average overall mshr miss latency ((Tick/Count))
system.cpu.dcache.overallAvgMshrMissLatency::cpu.data 100089.660850                       # average overall mshr miss latency ((Tick/Count))
system.cpu.dcache.overallAvgMshrMissLatency::total 100089.660850                       # average overall mshr miss latency ((Tick/Count))
system.cpu.dcache.replacements                 383301                       # number of replacements (Count)
system.cpu.dcache.ReadReq.hits::cpu.data     10864791                       # number of ReadReq hits (Count)
system.cpu.dcache.ReadReq.hits::total        10864791                       # number of ReadReq hits (Count)
system.cpu.dcache.ReadReq.misses::cpu.data       375321                       # number of ReadReq misses (Count)
system.cpu.dcache.ReadReq.misses::total        375321                       # number of ReadReq misses (Count)
system.cpu.dcache.ReadReq.missLatency::cpu.data  38322422000                       # number of ReadReq miss ticks (Tick)
system.cpu.dcache.ReadReq.missLatency::total  38322422000                       # number of ReadReq miss ticks (Tick)
system.cpu.dcache.ReadReq.accesses::cpu.data     11240112                       # number of ReadReq accesses(hits+misses) (Count)
system.cpu.dcache.ReadReq.accesses::total     11240112                       # number of ReadReq accesses(hits+misses) (Count)
system.cpu.dcache.ReadReq.missRate::cpu.data     0.033391                       # miss rate for ReadReq accesses (Ratio)
system.cpu.dcache.ReadReq.missRate::total     0.033391                       # miss rate for ReadReq accesses (Ratio)
system.cpu.dcache.ReadReq.avgMissLatency::cpu.data 102105.722835                       # average ReadReq miss latency ((Tick/Count))
system.cpu.dcache.ReadReq.avgMissLatency::total 102105.722835                       # average ReadReq miss latency ((Tick/Count))
system.cpu.dcache.ReadReq.mshrMisses::cpu.data       375321                       # number of ReadReq MSHR misses (Count)
system.cpu.dcache.ReadReq.mshrMisses::total       375321                       # number of ReadReq MSHR misses (Count)
system.cpu.dcache.ReadReq.mshrMissLatency::cpu.data  37571780000                       # number of ReadReq MSHR miss ticks (Tick)
system.cpu.dcache.ReadReq.mshrMissLatency::total  37571780000                       # number of ReadReq MSHR miss ticks (Tick)
system.cpu.dcache.ReadReq.mshrMissRate::cpu.data     0.033391                       # mshr miss rate for ReadReq accesses (Ratio)
system.cpu.dcache.ReadReq.mshrMissRate::total     0.033391                       # mshr miss rate for ReadReq accesses (Ratio)
system.cpu.dcache.ReadReq.avgMshrMissLatency::cpu.data 100105.722835                       # average ReadReq mshr miss latency ((Tick/Count))
system.cpu.dcache.ReadReq.avgMshrMissLatency::total 100105.722835                       # average ReadReq mshr miss latency ((Tick/Count))
system.cpu.dcache.WriteReq.hits::cpu.data      2404474                       # number of WriteReq hits (Count)
system.cpu.dcache.WriteReq.hits::total        2404474                       # number of WriteReq hits (Count)
system.cpu.dcache.WriteReq.misses::cpu.data         8492                       # number of WriteReq misses (Count)
system.cpu.dcache.WriteReq.misses::total         8492                       # number of WriteReq misses (Count)
system.cpu.dcache.WriteReq.missLatency::cpu.data    860917000                       # number of WriteReq miss ticks (Tick)
system.cpu.dcache.WriteReq.missLatency::total    860917000                       # number of WriteReq miss ticks (Tick)
system.cpu.dcache.WriteReq.accesses::cpu.data      2412966                       # number of WriteReq accesses(hits+misses) (Count)
system.cpu.dcache.WriteReq.accesses::total      2412966                       # number of WriteReq accesses(hits+misses) (Count)
system.cpu.dcache.WriteReq.missRate::cpu.data     0.003519                       # miss rate for WriteReq accesses (Ratio)
system.cpu.dcache.WriteReq.missRate::total     0.003519                       # miss rate for WriteReq accesses (Ratio)
system.cpu.dcache.WriteReq.avgMissLatency::cpu.data 101379.769195                       # average WriteReq miss latency ((Tick/Count))
system.cpu.dcache.WriteReq.avgMissLatency::total 101379.769195                       # average WriteReq miss latency ((Tick/Count))
system.cpu.dcache.WriteReq.mshrMisses::cpu.data         8492                       # number of WriteReq MSHR misses (Count)
system.cpu.dcache.WriteReq.mshrMisses::total         8492                       # number of WriteReq MSHR misses (Count)
system.cpu.dcache.WriteReq.mshrMissLatency::cpu.data    843933000                       # number of WriteReq MSHR miss ticks (Tick)
system.cpu.dcache.WriteReq.mshrMissLatency::total    843933000                       # number of WriteReq MSHR miss ticks (Tick)
system.cpu.dcache.WriteReq.mshrMissRate::cpu.data     0.003519                       # mshr miss rate for WriteReq accesses (Ratio)
system.cpu.dcache.WriteReq.mshrMissRate::total     0.003519                       # mshr miss rate for WriteReq accesses (Ratio)
system.cpu.dcache.WriteReq.avgMshrMissLatency::cpu.data 99379.769195                       # average WriteReq mshr miss latency ((Tick/Count))
system.cpu.dcache.WriteReq.avgMshrMissLatency::total 99379.769195                       # average WriteReq mshr miss latency ((Tick/Count))
system.cpu.dcache.power_state.pwrStateResidencyTicks::UNDEFINED 145289592000                       # Cumulative time (in ticks) in various power states (Tick)
system.cpu.dcache.tags.tagsInUse           511.659562                       # Average ticks per tags in use ((Tick/Count))
system.cpu.dcache.tags.totalRefs             13653078                       # Total number of references to valid blocks. (Count)
system.cpu.dcache.tags.sampledRefs             383813                       # Sample count of references to valid blocks. (Count)
system.cpu.dcache.tags.avgRefs              35.572214                       # Average number of references to valid blocks. ((Count/Count))
system.cpu.dcache.tags.warmupTick              218000                       # The tick when the warmup percentage was hit. (Tick)
system.cpu.dcache.tags.occupancies::cpu.data   511.659562                       # Average occupied blocks per tick, per requestor ((Count/Tick))
system.cpu.dcache.tags.avgOccs::cpu.data     0.999335                       # Average percentage of cache occupancy ((Ratio/Tick))
system.cpu.dcache.tags.avgOccs::total        0.999335                       # Average percentage of cache occupancy ((Ratio/Tick))
system.cpu.dcache.tags.occupanciesTaskId::1024          512                       # Occupied blocks per task id (Count)
system.cpu.dcache.tags.ageTaskId_1024::0           23                       # Occupied blocks per task id, per block age (Count)
system.cpu.dcache.tags.ageTaskId_1024::1          137                       # Occupied blocks per task id, per block age (Count)
system.cpu.dcache.tags.ageTaskId_1024::2          106                       # Occupied blocks per task id, per block age (Count)
system.cpu.dcache.tags.ageTaskId_1024::3          246                       # Occupied blocks per task id, per block age (Count)
system.cpu.dcache.tags.ratioOccsTaskId::1024            1                       # Ratio of occupied blocks and all blocks, per task id (Ratio)
system.cpu.dcache.tags.tagAccesses          109608437                       # Number of tag accesses (Count)
system.cpu.dcache.tags.dataAccesses         109608437                       # Number of data accesses (Count)
system.cpu.dcache.tags.power_state.pwrStateResidencyTicks::UNDEFINED 145289592000                       # Cumulative time (in ticks) in various power states (Tick)
system.cpu.exec_context.thread_0.numMatAluAccesses            0                       # Number of matrix alu accesses (Count)
system.cpu.exec_context.thread_0.numCallsReturns       339206                       # Number of times a function call or return occured (Count)
system.cpu.exec_context.thread_0.numMatInsts            0                       # Number of matrix instructions (Count)
system.cpu.exec_context.thread_0.numIdleCycles     0.001000                       # Number of idle cycles (Cycle)
system.cpu.exec_context.thread_0.numBusyCycles 145289591.999000                       # Number of busy cycles (Cycle)
system.cpu.exec_context.thread_0.notIdleFraction     1.000000                       # Percentage of non-idle cycles (Ratio)
system.cpu.exec_context.thread_0.idleFraction     0.000000                       # Percentage of idle cycles (Ratio)
system.cpu.executeStats0.numInsts                   0                       # Number of executed instructions (Count)
system.cpu.executeStats0.numNop                     0                       # Number of nop insts executed (Count)
system.cpu.executeStats0.numBranches                0                       # Number of branches executed (Count)
system.cpu.executeStats0.numLoadInsts               0                       # Number of load instructions executed (Count)
system.cpu.executeStats0.numStoreInsts       13653242                       # Number of stores executed (Count)
system.cpu.executeStats0.instRate                   0                       # Inst execution rate ((Count/Cycle))
system.cpu.executeStats0.numFpAluAccesses      9264508                       # Number of float alu accesses (Count)
system.cpu.executeStats0.numFpRegReads        8535366                       # Number of times the floating registers were read (Count)
system.cpu.executeStats0.numFpRegWrites       8280091                       # Number of times the floating registers were written (Count)
system.cpu.executeStats0.numIntAluAccesses     34038814                       # Number of integer alu accesses (Count)
system.cpu.executeStats0.numIntRegReads      40523955                       # Number of times the integer registers were read (Count)
system.cpu.executeStats0.numIntRegWrites     25420203                       # Number of times the integer registers were written (Count)
system.cpu.executeStats0.numMemRefs          13653242                       # Number of memory refs (Count)
system.cpu.executeStats0.numMiscRegReads     17482584                       # Number of times the Misc registers were read (Count)
system.cpu.executeStats0.numMiscRegWrites           18                       # Number of times the Misc registers were written (Count)
system.cpu.executeStats0.numVecAluAccesses            0                       # Number of vector alu accesses (Count)
system.cpu.executeStats0.numDiscardedOps            0                       # Number of ops (including micro ops) which were discarded before commit (Count)
system.cpu.fetchStats0.numInsts              26301867                       # Number of instructions fetched (thread level) (Count)
system.cpu.fetchStats0.numOps                39615872                       # Number of ops (including micro ops) fetched (thread level) (Count)
system.cpu.fetchStats0.fetchRate             0.181031                       # Number of inst fetches per cycle ((Count/Cycle))
system.cpu.fetchStats0.numBranches            1879104                       # Number of branches fetched (Count)
system.cpu.fetchStats0.branchRate            0.012934                       # Number of branch fetches per cycle (Ratio)
system.cpu.fetchStats0.numFetchSuspends             0                       # Number of times Execute suspended instruction fetching (Count)
system.cpu.icache.demandHits::cpu.inst       39706243                       # number of demand (read+write) hits (Count)
system.cpu.icache.demandHits::total          39706243                       # number of demand (read+write) hits (Count)
system.cpu.icache.overallHits::cpu.inst      39706243                       # number of overall hits (Count)
system.cpu.icache.overallHits::total         39706243                       # number of overall hits (Count)
system.cpu.icache.demandMisses::cpu.inst         1513                       # number of demand (read+write) misses (Count)
system.cpu.icache.demandMisses::total            1513                       # number of demand (read+write) misses (Count)
system.cpu.icache.overallMisses::cpu.inst         1513                       # number of overall misses (Count)
system.cpu.icache.overallMisses::total           1513                       # number of overall misses (Count)
system.cpu.icache.demandMissLatency::cpu.inst    155581000                       # number of demand (read+write) miss ticks (Tick)
system.cpu.icache.demandMissLatency::total    155581000                       # number of demand (read+write) miss ticks (Tick)
system.cpu.icache.overallMissLatency::cpu.inst    155581000                       # number of overall miss ticks (Tick)
system.cpu.icache.overallMissLatency::total    155581000                       # number of overall miss ticks (Tick)
system.cpu.icache.demandAccesses::cpu.inst     39707756                       # number of demand (read+write) accesses (Count)
system.cpu.icache.demandAccesses::total      39707756                       # number of demand (read+write) accesses (Count)
system.cpu.icache.overallAccesses::cpu.inst     39707756                       # number of overall (read+write) accesses (Count)
system.cpu.icache.overallAccesses::total     39707756                       # number of overall (read+write) accesses (Count)
system.cpu.icache.demandMissRate::cpu.inst     0.000038                       # miss rate for demand accesses (Ratio)
system.cpu.icache.demandMissRate::total      0.000038                       # miss rate for demand accesses (Ratio)
system.cpu.icache.overallMissRate::cpu.inst     0.000038                       # miss rate for overall accesses (Ratio)
system.cpu.icache.overallMissRate::total     0.000038                       # miss rate for overall accesses (Ratio)
system.cpu.icache.demandAvgMissLatency::cpu.inst 102829.477859                       # average overall miss latency in ticks ((Tick/Count))
system.cpu.icache.demandAvgMissLatency::total 102829.477859                       # average overall miss latency in ticks ((Tick/Count))
system.cpu.icache.overallAvgMissLatency::cpu.inst 102829.477859                       # average overall miss latency ((Tick/Count))
system.cpu.icache.overallAvgMissLatency::total 102829.477859                       # average overall miss latency ((Tick/Count))
system.cpu.icache.blockedCycles::no_mshrs            0                       # number of cycles access was blocked (Cycle)
system.cpu.icache.blockedCycles::no_targets            0                       # number of cycles access was blocked (Cycle)
system.cpu.icache.blockedCauses::no_mshrs            0                       # number of times access was blocked (Count)
system.cpu.icache.blockedCauses::no_targets            0                       # number of times access was blocked (Count)
system.cpu.icache.avgBlocked::no_mshrs            nan                       # average number of cycles each access was blocked ((Cycle/Count))
system.cpu.icache.avgBlocked::no_targets          nan                       # average number of cycles each access was blocked ((Cycle/Count))
system.cpu.icache.demandMshrMisses::cpu.inst         1513                       # number of demand (read+write) MSHR misses (Count)
system.cpu.icache.demandMshrMisses::total         1513                       # number of demand (read+write) MSHR misses (Count)
system.cpu.icache.overallMshrMisses::cpu.inst         1513                       # number of overall MSHR misses (Count)
system.cpu.icache.overallMshrMisses::total         1513                       # number of overall MSHR misses (Count)
system.cpu.icache.demandMshrMissLatency::cpu.inst    152555000                       # number of demand (read+write) MSHR miss ticks (Tick)
system.cpu.icache.demandMshrMissLatency::total    152555000                       # number of demand (read+write) MSHR miss ticks (Tick)
system.cpu.icache.overallMshrMissLatency::cpu.inst    152555000                       # number of overall MSHR miss ticks (Tick)
system.cpu.icache.overallMshrMissLatency::total    152555000                       # number of overall MSHR miss ticks (Tick)
system.cpu.icache.demandMshrMissRate::cpu.inst     0.000038                       # mshr miss ratio for demand accesses (Ratio)
system.cpu.icache.demandMshrMissRate::total     0.000038                       # mshr miss ratio for demand accesses (Ratio)
system.cpu.icache.overallMshrMissRate::cpu.inst     0.000038                       # mshr miss ratio for overall accesses (Ratio)
system.cpu.icache.overallMshrMissRate::total     0.000038                       # mshr miss ratio for overall accesses (Ratio)
system.cpu.icache.demandAvgMshrMissLatency::cpu.inst 100829.477859                       # average overall mshr miss latency ((Tick/Count))
system.cpu.icache.demandAvgMshrMissLatency::total 100829.477859                       # average overall mshr miss latency ((Tick/Count))
system.cpu.icache.overallAvgMshrMissLatency::cpu.inst 100829.477859                       # average overall mshr miss latency ((Tick/Count))
system.cpu.icache.overallAvgMshrMissLatency::total 100829.477859                       # average overall mshr miss latency ((Tick/Count))
system.cpu.icache.replacements                   1001                       # number of replacements (Count)
system.cpu.icache.ReadReq.hits::cpu.inst     39706243                       # number of ReadReq hits (Count)
system.cpu.icache.ReadReq.hits::total        39706243                       # number of ReadReq hits (Count)
system.cpu.icache.ReadReq.misses::cpu.inst         1513                       # number of ReadReq misses (Count)
system.cpu.icache.ReadReq.misses::total          1513                       # number of ReadReq misses (Count)
system.cpu.icache.ReadReq.missLatency::cpu.inst    155581000                       # number of ReadReq miss ticks (Tick)
system.cpu.icache.ReadReq.missLatency::total    155581000                       # number of ReadReq miss ticks (Tick)
system.cpu.icache.ReadReq.accesses::cpu.inst     39707756                       # number of ReadReq accesses(hits+misses) (Count)
system.cpu.icache.ReadReq.accesses::total     39707756                       # number of ReadReq accesses(hits+misses) (Count)
system.cpu.icache.ReadReq.missRate::cpu.inst     0.000038                       # miss rate for ReadReq accesses (Ratio)
system.cpu.icache.ReadReq.missRate::total     0.000038                       # miss rate for ReadReq accesses (Ratio)
system.cpu.icache.ReadReq.avgMissLatency::cpu.inst 102829.477859                       # average ReadReq miss latency ((Tick/Count))
system.cpu.icache.ReadReq.avgMissLatency::total 102829.477859                       # average ReadReq miss latency ((Tick/Count))
system.cpu.icache.ReadReq.mshrMisses::cpu.inst         1513                       # number of ReadReq MSHR misses (Count)
system.cpu.icache.ReadReq.mshrMisses::total         1513                       # number of ReadReq MSHR misses (Count)
system.cpu.icache.ReadReq.mshrMissLatency::cpu.inst    152555000                       # number of ReadReq MSHR miss ticks (Tick)
system.cpu.icache.ReadReq.mshrMissLatency::total    152555000                       # number of ReadReq MSHR miss ticks (Tick)
system.cpu.icache.ReadReq.mshrMissRate::cpu.inst     0.000038                       # mshr miss rate for ReadReq accesses (Ratio)
system.cpu.icache.ReadReq.mshrMissRate::total     0.000038                       # mshr miss rate for ReadReq accesses (Ratio)
system.cpu.icache.ReadReq.avgMshrMissLatency::cpu.inst 100829.477859                       # average ReadReq mshr miss latency ((Tick/Count))
system.cpu.icache.ReadReq.avgMshrMissLatency::total 100829.477859                       # average ReadReq mshr miss latency ((Tick/Count))
system.cpu.icache.power_state.pwrStateResidencyTicks::UNDEFINED 145289592000                       # Cumulative time (in ticks) in various power states (Tick)
system.cpu.icache.tags.tagsInUse           511.635182                       # Average ticks per tags in use ((Tick/Count))
system.cpu.icache.tags.totalRefs             39707756                       # Total number of references to valid blocks. (Count)
system.cpu.icache.tags.sampledRefs               1513                       # Sample count of references to valid blocks. (Count)
system.cpu.icache.tags.avgRefs           26244.385988                       # Average number of references to valid blocks. ((Count/Count))
system.cpu.icache.tags.warmupTick              107000                       # The tick when the warmup percentage was hit. (Tick)
system.cpu.icache.tags.occupancies::cpu.inst   511.635182                       # Average occupied blocks per tick, per requestor ((Count/Tick))
system.cpu.icache.tags.avgOccs::cpu.inst     0.999287                       # Average percentage of cache occupancy ((Ratio/Tick))
system.cpu.icache.tags.avgOccs::total        0.999287                       # Average percentage of cache occupancy ((Ratio/Tick))
system.cpu.icache.tags.occupanciesTaskId::1024          512                       # Occupied blocks per task id (Count)
system.cpu.icache.tags.ageTaskId_1024::0           51                       # Occupied blocks per task id, per block age (Count)
system.cpu.icache.tags.ageTaskId_1024::1           55                       # Occupied blocks per task id, per block age (Count)
system.cpu.icache.tags.ageTaskId_1024::2            4                       # Occupied blocks per task id, per block age (Count)
system.cpu.icache.tags.ageTaskId_1024::3          127                       # Occupied blocks per task id, per block age (Count)
system.cpu.icache.tags.ageTaskId_1024::4          275                       # Occupied blocks per task id, per block age (Count)
system.cpu.icache.tags.ratioOccsTaskId::1024            1                       # Ratio of occupied blocks and all blocks, per task id (Ratio)
system.cpu.icache.tags.tagAccesses          317663561                       # Number of tag accesses (Count)
system.cpu.icache.tags.dataAccesses         317663561                       # Number of data accesses (Count)
system.cpu.icache.tags.power_state.pwrStateResidencyTicks::UNDEFINED 145289592000                       # Cumulative time (in ticks) in various power states (Tick)
system.cpu.interrupts.clk_domain.clock          16000                       # Clock period in ticks (Tick)
system.cpu.mmu.dtb.rdAccesses                11240273                       # TLB accesses on read requests (Count)
system.cpu.mmu.dtb.wrAccesses                 2412995                       # TLB accesses on write requests (Count)
system.cpu.mmu.dtb.rdMisses                     42185                       # TLB misses on read requests (Count)
system.cpu.mmu.dtb.wrMisses                       170                       # TLB misses on write requests (Count)
system.cpu.mmu.dtb.walker.power_state.pwrStateResidencyTicks::UNDEFINED 145289592000                       # Cumulative time (in ticks) in various power states (Tick)
system.cpu.mmu.itb.rdAccesses                       0                       # TLB accesses on read requests (Count)
system.cpu.mmu.itb.wrAccesses                39707826                       # TLB accesses on write requests (Count)
system.cpu.mmu.itb.rdMisses                         0                       # TLB misses on read requests (Count)
system.cpu.mmu.itb.wrMisses                       241                       # TLB misses on write requests (Count)
system.cpu.mmu.itb.walker.power_state.pwrStateResidencyTicks::UNDEFINED 145289592000                       # Cumulative time (in ticks) in various power states (Tick)
system.cpu.power_state.pwrStateResidencyTicks::ON 145289592000                       # Cumulative time (in ticks) in various power states (Tick)
system.cpu.thread_0.numInsts                        0                       # Number of Instructions committed (Count)
system.cpu.thread_0.numOps                          0                       # Number of Ops committed (Count)
system.cpu.thread_0.numMemRefs                      0                       # Number of Memory References (Count)
system.cpu.workload.numSyscalls                    75                       # Number of system calls (Count)
system.l2bus.transDist::ReadResp               376834                       # Transaction distribution (Count)
system.l2bus.transDist::WritebackDirty          81169                       # Transaction distribution (Count)
system.l2bus.transDist::CleanEvict             712263                       # Transaction distribution (Count)
system.l2bus.transDist::ReadExReq                8492                       # Transaction distribution (Count)
system.l2bus.transDist::ReadExResp               8492                       # Transaction distribution (Count)
system.l2bus.transDist::ReadSharedReq          376834                       # Transaction distribution (Count)
system.l2bus.pktCount_system.cpu.icache.mem_side_port::system.l2cache.cpu_side_port         4027                       # Packet count per connected requestor and responder (Count)
system.l2bus.pktCount_system.cpu.dcache.mem_side_port::system.l2cache.cpu_side_port      1150927                       # Packet count per connected requestor and responder (Count)
system.l2bus.pktCount::total                  1154954                       # Packet count per connected requestor and responder (Count)
system.l2bus.pktSize_system.cpu.icache.mem_side_port::system.l2cache.cpu_side_port        96832                       # Cumulative packet size per connected requestor and responder (Byte)
system.l2bus.pktSize_system.cpu.dcache.mem_side_port::system.l2cache.cpu_side_port     27168576                       # Cumulative packet size per connected requestor and responder (Byte)
system.l2bus.pktSize::total                  27265408                       # Cumulative packet size per connected requestor and responder (Byte)
system.l2bus.snoops                            409130                       # Total snoops (Count)
system.l2bus.snoopTraffic                     2590272                       # Total snoop traffic (Byte)
system.l2bus.snoopFanout::samples              794456                       # Request fanout histogram (Count)
system.l2bus.snoopFanout::mean               0.111232                       # Request fanout histogram (Count)
system.l2bus.snoopFanout::stdev              0.314420                       # Request fanout histogram (Count)
system.l2bus.snoopFanout::underflows                0      0.00%      0.00% # Request fanout histogram (Count)
system.l2bus.snoopFanout::0                    706087     88.88%     88.88% # Request fanout histogram (Count)
system.l2bus.snoopFanout::1                     88369     11.12%    100.00% # Request fanout histogram (Count)
system.l2bus.snoopFanout::2                         0      0.00%    100.00% # Request fanout histogram (Count)
system.l2bus.snoopFanout::overflows                 0      0.00%    100.00% # Request fanout histogram (Count)
system.l2bus.snoopFanout::min_value                 0                       # Request fanout histogram (Count)
system.l2bus.snoopFanout::max_value                 1                       # Request fanout histogram (Count)
system.l2bus.snoopFanout::total                794456                       # Request fanout histogram (Count)
system.l2bus.power_state.pwrStateResidencyTicks::UNDEFINED 145289592000                       # Cumulative time (in ticks) in various power states (Tick)
system.l2bus.reqLayer0.occupancy            851020000                       # Layer occupancy (ticks) (Tick)
system.l2bus.reqLayer0.utilization                0.0                       # Layer utilization (Ratio)
system.l2bus.respLayer0.occupancy             4539000                       # Layer occupancy (ticks) (Tick)
system.l2bus.respLayer0.utilization               0.0                       # Layer utilization (Ratio)
system.l2bus.respLayer1.occupancy          1151439000                       # Layer occupancy (ticks) (Tick)
system.l2bus.respLayer1.utilization               0.0                       # Layer utilization (Ratio)
system.l2bus.snoop_filter.totRequests          769628                       # Total number of requests made to the snoop filter. (Count)
system.l2bus.snoop_filter.hitSingleRequests       384302                       # Number of requests hitting in the snoop filter with a single holder of the requested data. (Count)
system.l2bus.snoop_filter.hitMultiRequests            0                       # Number of requests hitting in the snoop filter with multiple (>1) holders of the requested data. (Count)
system.l2bus.snoop_filter.totSnoops             88369                       # Total number of snoops made to the snoop filter. (Count)
system.l2bus.snoop_filter.hitSingleSnoops        88369                       # Number of snoops hitting in the snoop filter with a single holder of the requested data. (Count)
system.l2bus.snoop_filter.hitMultiSnoops            0                       # Number of snoops hitting in the snoop filter with multiple (>1) holders of the requested data. (Count)
system.l2cache.demandHits::cpu.inst                 2                       # number of demand (read+write) hits (Count)
system.l2cache.demandHits::cpu.data               414                       # number of demand (read+write) hits (Count)
system.l2cache.demandHits::total                  416                       # number of demand (read+write) hits (Count)
system.l2cache.overallHits::cpu.inst                2                       # number of overall hits (Count)
system.l2cache.overallHits::cpu.data              414                       # number of overall hits (Count)
system.l2cache.overallHits::total                 416                       # number of overall hits (Count)
system.l2cache.demandMisses::cpu.inst            1511                       # number of demand (read+write) misses (Count)
system.l2cache.demandMisses::cpu.data          383399                       # number of demand (read+write) misses (Count)
system.l2cache.demandMisses::total             384910                       # number of demand (read+write) misses (Count)
system.l2cache.overallMisses::cpu.inst           1511                       # number of overall misses (Count)
system.l2cache.overallMisses::cpu.data         383399                       # number of overall misses (Count)
system.l2cache.overallMisses::total            384910                       # number of overall misses (Count)
system.l2cache.demandMissLatency::cpu.inst    147959000                       # number of demand (read+write) miss ticks (Tick)
system.l2cache.demandMissLatency::cpu.data  37255575000                       # number of demand (read+write) miss ticks (Tick)
system.l2cache.demandMissLatency::total   37403534000                       # number of demand (read+write) miss ticks (Tick)
system.l2cache.overallMissLatency::cpu.inst    147959000                       # number of overall miss ticks (Tick)
system.l2cache.overallMissLatency::cpu.data  37255575000                       # number of overall miss ticks (Tick)
system.l2cache.overallMissLatency::total  37403534000                       # number of overall miss ticks (Tick)
system.l2cache.demandAccesses::cpu.inst          1513                       # number of demand (read+write) accesses (Count)
system.l2cache.demandAccesses::cpu.data        383813                       # number of demand (read+write) accesses (Count)
system.l2cache.demandAccesses::total           385326                       # number of demand (read+write) accesses (Count)
system.l2cache.overallAccesses::cpu.inst         1513                       # number of overall (read+write) accesses (Count)
system.l2cache.overallAccesses::cpu.data       383813                       # number of overall (read+write) accesses (Count)
system.l2cache.overallAccesses::total          385326                       # number of overall (read+write) accesses (Count)
system.l2cache.demandMissRate::cpu.inst      0.998678                       # miss rate for demand accesses (Ratio)
system.l2cache.demandMissRate::cpu.data      0.998921                       # miss rate for demand accesses (Ratio)
system.l2cache.demandMissRate::total         0.998920                       # miss rate for demand accesses (Ratio)
system.l2cache.overallMissRate::cpu.inst     0.998678                       # miss rate for overall accesses (Ratio)
system.l2cache.overallMissRate::cpu.data     0.998921                       # miss rate for overall accesses (Ratio)
system.l2cache.overallMissRate::total        0.998920                       # miss rate for overall accesses (Ratio)
system.l2cache.demandAvgMissLatency::cpu.inst 97921.244209                       # average overall miss latency in ticks ((Tick/Count))
system.l2cache.demandAvgMissLatency::cpu.data 97171.810568                       # average overall miss latency in ticks ((Tick/Count))
system.l2cache.demandAvgMissLatency::total 97174.752540                       # average overall miss latency in ticks ((Tick/Count))
system.l2cache.overallAvgMissLatency::cpu.inst 97921.244209                       # average overall miss latency ((Tick/Count))
system.l2cache.overallAvgMissLatency::cpu.data 97171.810568                       # average overall miss latency ((Tick/Count))
system.l2cache.overallAvgMissLatency::total 97174.752540                       # average overall miss latency ((Tick/Count))
system.l2cache.blockedCycles::no_mshrs              0                       # number of cycles access was blocked (Cycle)
system.l2cache.blockedCycles::no_targets            0                       # number of cycles access was blocked (Cycle)
system.l2cache.blockedCauses::no_mshrs              0                       # number of times access was blocked (Count)
system.l2cache.blockedCauses::no_targets            0                       # number of times access was blocked (Count)
system.l2cache.avgBlocked::no_mshrs               nan                       # average number of cycles each access was blocked ((Cycle/Count))
system.l2cache.avgBlocked::no_targets             nan                       # average number of cycles each access was blocked ((Cycle/Count))
system.l2cache.writebacks::writebacks           40473                       # number of writebacks (Count)
system.l2cache.writebacks::total                40473                       # number of writebacks (Count)
system.l2cache.demandMshrMisses::cpu.inst         1511                       # number of demand (read+write) MSHR misses (Count)
system.l2cache.demandMshrMisses::cpu.data       383399                       # number of demand (read+write) MSHR misses (Count)
system.l2cache.demandMshrMisses::total         384910                       # number of demand (read+write) MSHR misses (Count)
system.l2cache.overallMshrMisses::cpu.inst         1511                       # number of overall MSHR misses (Count)
system.l2cache.overallMshrMisses::cpu.data       383399                       # number of overall MSHR misses (Count)
system.l2cache.overallMshrMisses::total        384910                       # number of overall MSHR misses (Count)
system.l2cache.demandMshrMissLatency::cpu.inst    117739000                       # number of demand (read+write) MSHR miss ticks (Tick)
system.l2cache.demandMshrMissLatency::cpu.data  29587595000                       # number of demand (read+write) MSHR miss ticks (Tick)
system.l2cache.demandMshrMissLatency::total  29705334000                       # number of demand (read+write) MSHR miss ticks (Tick)
system.l2cache.overallMshrMissLatency::cpu.inst    117739000                       # number of overall MSHR miss ticks (Tick)
system.l2cache.overallMshrMissLatency::cpu.data  29587595000                       # number of overall MSHR miss ticks (Tick)
system.l2cache.overallMshrMissLatency::total  29705334000                       # number of overall MSHR miss ticks (Tick)
system.l2cache.demandMshrMissRate::cpu.inst     0.998678                       # mshr miss ratio for demand accesses (Ratio)
system.l2cache.demandMshrMissRate::cpu.data     0.998921                       # mshr miss ratio for demand accesses (Ratio)
system.l2cache.demandMshrMissRate::total     0.998920                       # mshr miss ratio for demand accesses (Ratio)
system.l2cache.overallMshrMissRate::cpu.inst     0.998678                       # mshr miss ratio for overall accesses (Ratio)
system.l2cache.overallMshrMissRate::cpu.data     0.998921                       # mshr miss ratio for overall accesses (Ratio)
system.l2cache.overallMshrMissRate::total     0.998920                       # mshr miss ratio for overall accesses (Ratio)
system.l2cache.demandAvgMshrMissLatency::cpu.inst 77921.244209                       # average overall mshr miss latency ((Tick/Count))
system.l2cache.demandAvgMshrMissLatency::cpu.data 77171.810568                       # average overall mshr miss latency ((Tick/Count))
system.l2cache.demandAvgMshrMissLatency::total 77174.752540                       # average overall mshr miss latency ((Tick/Count))
system.l2cache.overallAvgMshrMissLatency::cpu.inst 77921.244209                       # average overall mshr miss latency ((Tick/Count))
system.l2cache.overallAvgMshrMissLatency::cpu.data 77171.810568                       # average overall mshr miss latency ((Tick/Count))
system.l2cache.overallAvgMshrMissLatency::total 77174.752540                       # average overall mshr miss latency ((Tick/Count))
system.l2cache.replacements                    409130                       # number of replacements (Count)
system.l2cache.CleanEvict.mshrMisses::writebacks        62686                       # number of CleanEvict MSHR misses (Count)
system.l2cache.CleanEvict.mshrMisses::total        62686                       # number of CleanEvict MSHR misses (Count)
system.l2cache.CleanEvict.mshrMissRate::writebacks          inf                       # mshr miss rate for CleanEvict accesses (Ratio)
system.l2cache.CleanEvict.mshrMissRate::total          inf                       # mshr miss rate for CleanEvict accesses (Ratio)
system.l2cache.ReadExReq.hits::cpu.data            21                       # number of ReadExReq hits (Count)
system.l2cache.ReadExReq.hits::total               21                       # number of ReadExReq hits (Count)
system.l2cache.ReadExReq.misses::cpu.data         8471                       # number of ReadExReq misses (Count)
system.l2cache.ReadExReq.misses::total           8471                       # number of ReadExReq misses (Count)
system.l2cache.ReadExReq.missLatency::cpu.data    818015000                       # number of ReadExReq miss ticks (Tick)
system.l2cache.ReadExReq.missLatency::total    818015000                       # number of ReadExReq miss ticks (Tick)
system.l2cache.ReadExReq.accesses::cpu.data         8492                       # number of ReadExReq accesses(hits+misses) (Count)
system.l2cache.ReadExReq.accesses::total         8492                       # number of ReadExReq accesses(hits+misses) (Count)
system.l2cache.ReadExReq.missRate::cpu.data     0.997527                       # miss rate for ReadExReq accesses (Ratio)
system.l2cache.ReadExReq.missRate::total     0.997527                       # miss rate for ReadExReq accesses (Ratio)
system.l2cache.ReadExReq.avgMissLatency::cpu.data 96566.521072                       # average ReadExReq miss latency ((Tick/Count))
system.l2cache.ReadExReq.avgMissLatency::total 96566.521072                       # average ReadExReq miss latency ((Tick/Count))
system.l2cache.ReadExReq.mshrMisses::cpu.data         8471                       # number of ReadExReq MSHR misses (Count)
system.l2cache.ReadExReq.mshrMisses::total         8471                       # number of ReadExReq MSHR misses (Count)
system.l2cache.ReadExReq.mshrMissLatency::cpu.data    648595000                       # number of ReadExReq MSHR miss ticks (Tick)
system.l2cache.ReadExReq.mshrMissLatency::total    648595000                       # number of ReadExReq MSHR miss ticks (Tick)
system.l2cache.ReadExReq.mshrMissRate::cpu.data     0.997527                       # mshr miss rate for ReadExReq accesses (Ratio)
system.l2cache.ReadExReq.mshrMissRate::total     0.997527                       # mshr miss rate for ReadExReq accesses (Ratio)
system.l2cache.ReadExReq.avgMshrMissLatency::cpu.data 76566.521072                       # average ReadExReq mshr miss latency ((Tick/Count))
system.l2cache.ReadExReq.avgMshrMissLatency::total 76566.521072                       # average ReadExReq mshr miss latency ((Tick/Count))
system.l2cache.ReadSharedReq.hits::cpu.inst            2                       # number of ReadSharedReq hits (Count)
system.l2cache.ReadSharedReq.hits::cpu.data          393                       # number of ReadSharedReq hits (Count)
system.l2cache.ReadSharedReq.hits::total          395                       # number of ReadSharedReq hits (Count)
system.l2cache.ReadSharedReq.misses::cpu.inst         1511                       # number of ReadSharedReq misses (Count)
system.l2cache.ReadSharedReq.misses::cpu.data       374928                       # number of ReadSharedReq misses (Count)
system.l2cache.ReadSharedReq.misses::total       376439                       # number of ReadSharedReq misses (Count)
system.l2cache.ReadSharedReq.missLatency::cpu.inst    147959000                       # number of ReadSharedReq miss ticks (Tick)
system.l2cache.ReadSharedReq.missLatency::cpu.data  36437560000                       # number of ReadSharedReq miss ticks (Tick)
system.l2cache.ReadSharedReq.missLatency::total  36585519000                       # number of ReadSharedReq miss ticks (Tick)
system.l2cache.ReadSharedReq.accesses::cpu.inst         1513                       # number of ReadSharedReq accesses(hits+misses) (Count)
system.l2cache.ReadSharedReq.accesses::cpu.data       375321                       # number of ReadSharedReq accesses(hits+misses) (Count)
system.l2cache.ReadSharedReq.accesses::total       376834                       # number of ReadSharedReq accesses(hits+misses) (Count)
system.l2cache.ReadSharedReq.missRate::cpu.inst     0.998678                       # miss rate for ReadSharedReq accesses (Ratio)
system.l2cache.ReadSharedReq.missRate::cpu.data     0.998953                       # miss rate for ReadSharedReq accesses (Ratio)
system.l2cache.ReadSharedReq.missRate::total     0.998952                       # miss rate for ReadSharedReq accesses (Ratio)
system.l2cache.ReadSharedReq.avgMissLatency::cpu.inst 97921.244209                       # average ReadSharedReq miss latency ((Tick/Count))
system.l2cache.ReadSharedReq.avgMissLatency::cpu.data 97185.486280                       # average ReadSharedReq miss latency ((Tick/Count))
system.l2cache.ReadSharedReq.avgMissLatency::total 97188.439561                       # average ReadSharedReq miss latency ((Tick/Count))
system.l2cache.ReadSharedReq.mshrMisses::cpu.inst         1511                       # number of ReadSharedReq MSHR misses (Count)
system.l2cache.ReadSharedReq.mshrMisses::cpu.data       374928                       # number of ReadSharedReq MSHR misses (Count)
system.l2cache.ReadSharedReq.mshrMisses::total       376439                       # number of ReadSharedReq MSHR misses (Count)
system.l2cache.ReadSharedReq.mshrMissLatency::cpu.inst    117739000                       # number of ReadSharedReq MSHR miss ticks (Tick)
system.l2cache.ReadSharedReq.mshrMissLatency::cpu.data  28939000000                       # number of ReadSharedReq MSHR miss ticks (Tick)
system.l2cache.ReadSharedReq.mshrMissLatency::total  29056739000                       # number of ReadSharedReq MSHR miss ticks (Tick)
system.l2cache.ReadSharedReq.mshrMissRate::cpu.inst     0.998678                       # mshr miss rate for ReadSharedReq accesses (Ratio)
system.l2cache.ReadSharedReq.mshrMissRate::cpu.data     0.998953                       # mshr miss rate for ReadSharedReq accesses (Ratio)
system.l2cache.ReadSharedReq.mshrMissRate::total     0.998952                       # mshr miss rate for ReadSharedReq accesses (Ratio)
system.l2cache.ReadSharedReq.avgMshrMissLatency::cpu.inst 77921.244209                       # average ReadSharedReq mshr miss latency ((Tick/Count))
system.l2cache.ReadSharedReq.avgMshrMissLatency::cpu.data 77185.486280                       # average ReadSharedReq mshr miss latency ((Tick/Count))
system.l2cache.ReadSharedReq.avgMshrMissLatency::total 77188.439561                       # average ReadSharedReq mshr miss latency ((Tick/Count))
system.l2cache.WritebackDirty.hits::writebacks        40696                       # number of WritebackDirty hits (Count)
system.l2cache.WritebackDirty.hits::total        40696                       # number of WritebackDirty hits (Count)
system.l2cache.WritebackDirty.accesses::writebacks        40696                       # number of WritebackDirty accesses(hits+misses) (Count)
system.l2cache.WritebackDirty.accesses::total        40696                       # number of WritebackDirty accesses(hits+misses) (Count)
system.l2cache.power_state.pwrStateResidencyTicks::UNDEFINED 145289592000                       # Cumulative time (in ticks) in various power states (Tick)
system.l2cache.tags.tagsInUse             1023.376127                       # Average ticks per tags in use ((Tick/Count))
system.l2cache.tags.totalRefs                  706942                       # Total number of references to valid blocks. (Count)
system.l2cache.tags.sampledRefs                410154                       # Sample count of references to valid blocks. (Count)
system.l2cache.tags.avgRefs                  1.723601                       # Average number of references to valid blocks. ((Count/Count))
system.l2cache.tags.warmupTick                  86000                       # The tick when the warmup percentage was hit. (Tick)
system.l2cache.tags.occupancies::writebacks   167.120559                       # Average occupied blocks per tick, per requestor ((Count/Tick))
system.l2cache.tags.occupancies::cpu.inst    10.811684                       # Average occupied blocks per tick, per requestor ((Count/Tick))
system.l2cache.tags.occupancies::cpu.data   845.443883                       # Average occupied blocks per tick, per requestor ((Count/Tick))
system.l2cache.tags.avgOccs::writebacks      0.163204                       # Average percentage of cache occupancy ((Ratio/Tick))
system.l2cache.tags.avgOccs::cpu.inst        0.010558                       # Average percentage of cache occupancy ((Ratio/Tick))
system.l2cache.tags.avgOccs::cpu.data        0.825629                       # Average percentage of cache occupancy ((Ratio/Tick))
system.l2cache.tags.avgOccs::total           0.999391                       # Average percentage of cache occupancy ((Ratio/Tick))
system.l2cache.tags.occupanciesTaskId::1024         1024                       # Occupied blocks per task id (Count)
system.l2cache.tags.ageTaskId_1024::0              74                       # Occupied blocks per task id, per block age (Count)
system.l2cache.tags.ageTaskId_1024::1             195                       # Occupied blocks per task id, per block age (Count)
system.l2cache.tags.ageTaskId_1024::2             162                       # Occupied blocks per task id, per block age (Count)
system.l2cache.tags.ageTaskId_1024::3             593                       # Occupied blocks per task id, per block age (Count)
system.l2cache.tags.ratioOccsTaskId::1024            1                       # Ratio of occupied blocks and all blocks, per task id (Ratio)
system.l2cache.tags.tagAccesses               6567178                       # Number of tag accesses (Count)
system.l2cache.tags.dataAccesses              6567178                       # Number of data accesses (Count)
system.l2cache.tags.power_state.pwrStateResidencyTicks::UNDEFINED 145289592000                       # Cumulative time (in ticks) in various power states (Tick)
system.mem_ctrl.avgPriority_writebacks::samples     40425.00                       # Average QoS priority value for accepted requests (Count)
system.mem_ctrl.avgPriority_cpu.inst::samples      1511.00                       # Average QoS priority value for accepted requests (Count)
system.mem_ctrl.avgPriority_cpu.data::samples    380139.00                       # Average QoS priority value for accepted requests (Count)
system.mem_ctrl.priorityMinLatency       0.000000018750                       # per QoS priority minimum request to response latency (Second)
system.mem_ctrl.priorityMaxLatency       0.010614460500                       # per QoS priority maximum request to response latency (Second)
system.mem_ctrl.numReadWriteTurnArounds          2246                       # Number of turnarounds from READ to WRITE (Count)
system.mem_ctrl.numWriteReadTurnArounds          2246                       # Number of turnarounds from WRITE to READ (Count)
system.mem_ctrl.numStayReadState               840748                       # Number of times bus staying in READ state (Count)
system.mem_ctrl.numStayWriteState               38210                       # Number of times bus staying in WRITE state (Count)
system.mem_ctrl.readReqs                       384910                       # Number of read requests accepted (Count)
system.mem_ctrl.writeReqs                       40473                       # Number of write requests accepted (Count)
system.mem_ctrl.readBursts                     384910                       # Number of controller read bursts, including those serviced by the write queue (Count)
system.mem_ctrl.writeBursts                     40473                       # Number of controller write bursts, including those merged in the write queue (Count)
system.mem_ctrl.servicedByWrQ                    3260                       # Number of controller read bursts serviced by the write queue (Count)
system.mem_ctrl.mergedWrBursts                     48                       # Number of controller write bursts merged with an existing one (Count)
system.mem_ctrl.neitherReadNorWriteReqs             0                       # Number of requests that are neither read nor write (Count)
system.mem_ctrl.avgRdQLen                        1.00                       # Average read queue length when enqueuing ((Count/Tick))
system.mem_ctrl.avgWrQLen                       24.69                       # Average write queue length when enqueuing ((Count/Tick))
system.mem_ctrl.numRdRetry                          0                       # Number of times read queue was full causing retry (Count)
system.mem_ctrl.numWrRetry                          0                       # Number of times write queue was full causing retry (Count)
system.mem_ctrl.readPktSize::0                      0                       # Read request sizes (log2) (Count)
system.mem_ctrl.readPktSize::1                      0                       # Read request sizes (log2) (Count)
system.mem_ctrl.readPktSize::2                      0                       # Read request sizes (log2) (Count)
system.mem_ctrl.readPktSize::3                      0                       # Read request sizes (log2) (Count)
system.mem_ctrl.readPktSize::4                      0                       # Read request sizes (log2) (Count)
system.mem_ctrl.readPktSize::5                      0                       # Read request sizes (log2) (Count)
system.mem_ctrl.readPktSize::6                 384910                       # Read request sizes (log2) (Count)
system.mem_ctrl.writePktSize::0                     0                       # Write request sizes (log2) (Count)
system.mem_ctrl.writePktSize::1                     0                       # Write request sizes (log2) (Count)
system.mem_ctrl.writePktSize::2                     0                       # Write request sizes (log2) (Count)
system.mem_ctrl.writePktSize::3                     0                       # Write request sizes (log2) (Count)
system.mem_ctrl.writePktSize::4                     0                       # Write request sizes (log2) (Count)
system.mem_ctrl.writePktSize::5                     0                       # Write request sizes (log2) (Count)
system.mem_ctrl.writePktSize::6                 40473                       # Write request sizes (log2) (Count)
system.mem_ctrl.rdQLenPdf::0                   381647                       # What read queue length does an incoming req see (Count)
system.mem_ctrl.rdQLenPdf::1                        3                       # What read queue length does an incoming req see (Count)
system.mem_ctrl.rdQLenPdf::2                        0                       # What read queue length does an incoming req see (Count)
system.mem_ctrl.rdQLenPdf::3                        0                       # What read queue length does an incoming req see (Count)
system.mem_ctrl.rdQLenPdf::4                        0                       # What read queue length does an incoming req see (Count)
system.mem_ctrl.rdQLenPdf::5                        0                       # What read queue length does an incoming req see (Count)
system.mem_ctrl.rdQLenPdf::6                        0                       # What read queue length does an incoming req see (Count)
system.mem_ctrl.rdQLenPdf::7                        0                       # What read queue length does an incoming req see (Count)
system.mem_ctrl.rdQLenPdf::8                        0                       # What read queue length does an incoming req see (Count)
system.mem_ctrl.rdQLenPdf::9                        0                       # What read queue length does an incoming req see (Count)
system.mem_ctrl.rdQLenPdf::10                       0                       # What read queue length does an incoming req see (Count)
system.mem_ctrl.rdQLenPdf::11                       0                       # What read queue length does an incoming req see (Count)
system.mem_ctrl.rdQLenPdf::12                       0                       # What read queue length does an incoming req see (Count)
system.mem_ctrl.rdQLenPdf::13                       0                       # What read queue length does an incoming req see (Count)
system.mem_ctrl.rdQLenPdf::14                       0                       # What read queue length does an incoming req see (Count)
system.mem_ctrl.rdQLenPdf::15                       0                       # What read queue length does an incoming req see (Count)
system.mem_ctrl.rdQLenPdf::16                       0                       # What read queue length does an incoming req see (Count)
system.mem_ctrl.rdQLenPdf::17                       0                       # What read queue length does an incoming req see (Count)
system.mem_ctrl.rdQLenPdf::18                       0                       # What read queue length does an incoming req see (Count)
system.mem_ctrl.rdQLenPdf::19                       0                       # What read queue length does an incoming req see (Count)
system.mem_ctrl.rdQLenPdf::20                       0                       # What read queue length does an incoming req see (Count)
system.mem_ctrl.rdQLenPdf::21                       0                       # What read queue length does an incoming req see (Count)
system.mem_ctrl.rdQLenPdf::22                       0                       # What read queue length does an incoming req see (Count)
system.mem_ctrl.rdQLenPdf::23                       0                       # What read queue length does an incoming req see (Count)
system.mem_ctrl.rdQLenPdf::24                       0                       # What read queue length does an incoming req see (Count)
system.mem_ctrl.rdQLenPdf::25                       0                       # What read queue length does an incoming req see (Count)
system.mem_ctrl.rdQLenPdf::26                       0                       # What read queue length does an incoming req see (Count)
system.mem_ctrl.rdQLenPdf::27                       0                       # What read queue length does an incoming req see (Count)
system.mem_ctrl.rdQLenPdf::28                       0                       # What read queue length does an incoming req see (Count)
system.mem_ctrl.rdQLenPdf::29                       0                       # What read queue length does an incoming req see (Count)
system.mem_ctrl.rdQLenPdf::30                       0                       # What read queue length does an incoming req see (Count)
system.mem_ctrl.rdQLenPdf::31                       0                       # What read queue length does an incoming req see (Count)
system.mem_ctrl.wrQLenPdf::0                        1                       # What write queue length does an incoming req see (Count)
system.mem_ctrl.wrQLenPdf::1                        1                       # What write queue length does an incoming req see (Count)
system.mem_ctrl.wrQLenPdf::2                        1                       # What write queue length does an incoming req see (Count)
system.mem_ctrl.wrQLenPdf::3                        1                       # What write queue length does an incoming req see (Count)
system.mem_ctrl.wrQLenPdf::4                        1                       # What write queue length does an incoming req see (Count)
system.mem_ctrl.wrQLenPdf::5                        1                       # What write queue length does an incoming req see (Count)
system.mem_ctrl.wrQLenPdf::6                        1                       # What write queue length does an incoming req see (Count)
system.mem_ctrl.wrQLenPdf::7                        1                       # What write queue length does an incoming req see (Count)
system.mem_ctrl.wrQLenPdf::8                        1                       # What write queue length does an incoming req see (Count)
system.mem_ctrl.wrQLenPdf::9                        1                       # What write queue length does an incoming req see (Count)
system.mem_ctrl.wrQLenPdf::10                       1                       # What write queue length does an incoming req see (Count)
system.mem_ctrl.wrQLenPdf::11                       1                       # What write queue length does an incoming req see (Count)
system.mem_ctrl.wrQLenPdf::12                       1                       # What write queue length does an incoming req see (Count)
system.mem_ctrl.wrQLenPdf::13                       1                       # What write queue length does an incoming req see (Count)
system.mem_ctrl.wrQLenPdf::14                       1                       # What write queue length does an incoming req see (Count)
system.mem_ctrl.wrQLenPdf::15                    2171                       # What write queue length does an incoming req see (Count)
system.mem_ctrl.wrQLenPdf::16                    2209                       # What write queue length does an incoming req see (Count)
system.mem_ctrl.wrQLenPdf::17                    2241                       # What write queue length does an incoming req see (Count)
[...]
system.mem_ctrl.dram.bytesWritten::total      2590272                       # Number of bytes written to this memory (Byte)
system.mem_ctrl.dram.numReads::cpu.inst          1511                       # Number of read requests responded to by this memory (Count)
system.mem_ctrl.dram.numReads::cpu.data        383399                       # Number of read requests responded to by this memory (Count)
system.mem_ctrl.dram.numReads::total           384910                       # Number of read requests responded to by this memory (Count)
system.mem_ctrl.dram.numWrites::writebacks        40473                       # Number of write requests responded to by this memory (Count)
system.mem_ctrl.dram.numWrites::total           40473                       # Number of write requests responded to by this memory (Count)
system.mem_ctrl.dram.bwRead::cpu.inst          665595                       # Total read bandwidth from this memory ((Byte/Second))
system.mem_ctrl.dram.bwRead::cpu.data       168887087                       # Total read bandwidth from this memory ((Byte/Second))
system.mem_ctrl.dram.bwRead::total          169552682                       # Total read bandwidth from this memory ((Byte/Second))
system.mem_ctrl.dram.bwInstRead::cpu.inst       665595                       # Instruction read bandwidth from this memory ((Byte/Second))
system.mem_ctrl.dram.bwInstRead::total         665595                       # Instruction read bandwidth from this memory ((Byte/Second))
system.mem_ctrl.dram.bwWrite::writebacks     17828338                       # Write bandwidth from this memory ((Byte/Second))
system.mem_ctrl.dram.bwWrite::total          17828338                       # Write bandwidth from this memory ((Byte/Second))
system.mem_ctrl.dram.bwTotal::writebacks     17828338                       # Total bandwidth to/from this memory ((Byte/Second))
system.mem_ctrl.dram.bwTotal::cpu.inst         665595                       # Total bandwidth to/from this memory ((Byte/Second))
system.mem_ctrl.dram.bwTotal::cpu.data      168887087                       # Total bandwidth to/from this memory ((Byte/Second))
system.mem_ctrl.dram.bwTotal::total         187381020                       # Total bandwidth to/from this memory ((Byte/Second))
system.mem_ctrl.dram.readBursts                381650                       # Number of DRAM read bursts (Count)
system.mem_ctrl.dram.writeBursts                40407                       # Number of DRAM write bursts (Count)
system.mem_ctrl.dram.perBankRdBursts::0         23169                       # Per bank write bursts (Count)
system.mem_ctrl.dram.perBankRdBursts::1         23482                       # Per bank write bursts (Count)
system.mem_ctrl.dram.perBankRdBursts::2         25036                       # Per bank write bursts (Count)
system.mem_ctrl.dram.perBankRdBursts::3         24496                       # Per bank write bursts (Count)
system.mem_ctrl.dram.perBankRdBursts::4         23629                       # Per bank write bursts (Count)
system.mem_ctrl.dram.perBankRdBursts::5         23086                       # Per bank write bursts (Count)
system.mem_ctrl.dram.perBankRdBursts::6         23695                       # Per bank write bursts (Count)
system.mem_ctrl.dram.perBankRdBursts::7         22988                       # Per bank write bursts (Count)
system.mem_ctrl.dram.perBankRdBursts::8         23019                       # Per bank write bursts (Count)
system.mem_ctrl.dram.perBankRdBursts::9         23233                       # Per bank write bursts (Count)
system.mem_ctrl.dram.perBankRdBursts::10        23262                       # Per bank write bursts (Count)
system.mem_ctrl.dram.perBankRdBursts::11        24115                       # Per bank write bursts (Count)
system.mem_ctrl.dram.perBankRdBursts::12        25630                       # Per bank write bursts (Count)
system.mem_ctrl.dram.perBankRdBursts::13        26021                       # Per bank write bursts (Count)
system.mem_ctrl.dram.perBankRdBursts::14        23582                       # Per bank write bursts (Count)
system.mem_ctrl.dram.perBankRdBursts::15        23207                       # Per bank write bursts (Count)
system.mem_ctrl.dram.perBankWrBursts::0          2396                       # Per bank write bursts (Count)
system.mem_ctrl.dram.perBankWrBursts::1          2439                       # Per bank write bursts (Count)
system.mem_ctrl.dram.perBankWrBursts::2          2801                       # Per bank write bursts (Count)
system.mem_ctrl.dram.perBankWrBursts::3          2571                       # Per bank write bursts (Count)
system.mem_ctrl.dram.perBankWrBursts::4          2394                       # Per bank write bursts (Count)
system.mem_ctrl.dram.perBankWrBursts::5          2369                       # Per bank write bursts (Count)
system.mem_ctrl.dram.perBankWrBursts::6          2425                       # Per bank write bursts (Count)
system.mem_ctrl.dram.perBankWrBursts::7          2400                       # Per bank write bursts (Count)
system.mem_ctrl.dram.perBankWrBursts::8          2373                       # Per bank write bursts (Count)
system.mem_ctrl.dram.perBankWrBursts::9          2499                       # Per bank write bursts (Count)
system.mem_ctrl.dram.perBankWrBursts::10         2404                       # Per bank write bursts (Count)
system.mem_ctrl.dram.perBankWrBursts::11         2766                       # Per bank write bursts (Count)
system.mem_ctrl.dram.perBankWrBursts::12         3098                       # Per bank write bursts (Count)
system.mem_ctrl.dram.perBankWrBursts::13         2723                       # Per bank write bursts (Count)
system.mem_ctrl.dram.perBankWrBursts::14         2374                       # Per bank write bursts (Count)
system.mem_ctrl.dram.perBankWrBursts::15         2375                       # Per bank write bursts (Count)
system.mem_ctrl.dram.totQLat               2845385750                       # Total ticks spent queuing (Tick)
system.mem_ctrl.dram.totBusLat             1908250000                       # Total ticks spent in databus transfers (Tick)
system.mem_ctrl.dram.totMemAccLat         10001323250                       # Total ticks spent from burst creation until serviced by the DRAM (Tick)
system.mem_ctrl.dram.avgQLat                  7455.48                       # Average queueing delay per DRAM burst ((Tick/Count))
system.mem_ctrl.dram.avgBusLat                5000.00                       # Average bus latency per DRAM burst ((Tick/Count))
system.mem_ctrl.dram.avgMemAccLat            26205.48                       # Average memory access latency per DRAM burst ((Tick/Count))
system.mem_ctrl.dram.readRowHits               335940                       # Number of row buffer hits during reads (Count)
system.mem_ctrl.dram.writeRowHits               35402                       # Number of row buffer hits during writes (Count)
system.mem_ctrl.dram.readRowHitRate             88.02                       # Row buffer hit rate for reads (Ratio)
system.mem_ctrl.dram.writeRowHitRate            87.61                       # Row buffer hit rate for writes (Ratio)
system.mem_ctrl.dram.bytesPerActivate::samples        50707                       # Bytes accessed per row activation (Byte)
system.mem_ctrl.dram.bytesPerActivate::mean   532.663971                       # Bytes accessed per row activation (Byte)
system.mem_ctrl.dram.bytesPerActivate::gmean   369.998788                       # Bytes accessed per row activation (Byte)
system.mem_ctrl.dram.bytesPerActivate::stdev   362.032859                       # Bytes accessed per row activation (Byte)
system.mem_ctrl.dram.bytesPerActivate::0-127         8067     15.91%     15.91% # Bytes accessed per row activation (Byte)
system.mem_ctrl.dram.bytesPerActivate::128-255         6602     13.02%     28.93% # Bytes accessed per row activation (Byte)
system.mem_ctrl.dram.bytesPerActivate::256-383         3506      6.91%     35.84% # Bytes accessed per row activation (Byte)
system.mem_ctrl.dram.bytesPerActivate::384-511         7213     14.22%     50.07% # Bytes accessed per row activation (Byte)
system.mem_ctrl.dram.bytesPerActivate::512-639         6417     12.66%     62.72% # Bytes accessed per row activation (Byte)
system.mem_ctrl.dram.bytesPerActivate::640-767         2062      4.07%     66.79% # Bytes accessed per row activation (Byte)
system.mem_ctrl.dram.bytesPerActivate::768-895         1969      3.88%     70.67% # Bytes accessed per row activation (Byte)
system.mem_ctrl.dram.bytesPerActivate::896-1023         2076      4.09%     74.77% # Bytes accessed per row activation (Byte)
system.mem_ctrl.dram.bytesPerActivate::1024-1151        12795     25.23%    100.00% # Bytes accessed per row activation (Byte)
system.mem_ctrl.dram.bytesPerActivate::total        50707                       # Bytes accessed per row activation (Byte)
system.mem_ctrl.dram.dramBytesRead           24425600                       # Total bytes read (Byte)
system.mem_ctrl.dram.dramBytesWritten         2586048                       # Total bytes written (Byte)
system.mem_ctrl.dram.avgRdBW               168.116654                       # Average DRAM read bandwidth in MiBytes/s ((Byte/Second))
system.mem_ctrl.dram.avgWrBW                17.799265                       # Average DRAM write bandwidth in MiBytes/s ((Byte/Second))
system.mem_ctrl.dram.peakBW                  12800.00                       # Theoretical peak bandwidth in MiByte/s ((Byte/Second))
system.mem_ctrl.dram.busUtil                     1.45                       # Data bus utilization in percentage (Ratio)
system.mem_ctrl.dram.busUtilRead                 1.31                       # Data bus utilization in percentage for reads (Ratio)
system.mem_ctrl.dram.busUtilWrite                0.14                       # Data bus utilization in percentage for writes (Ratio)
system.mem_ctrl.dram.pageHitRate                87.98                       # Row buffer hit rate, read and write combined (Ratio)
system.mem_ctrl.dram.power_state.pwrStateResidencyTicks::UNDEFINED 145289592000                       # Cumulative time (in ticks) in various power states (Tick)
system.mem_ctrl.dram.rank0.actEnergy        187096560                       # Energy for activate commands per rank (pJ) (Joule)
system.mem_ctrl.dram.rank0.preEnergy         99429000                       # Energy for precharge commands per rank (pJ) (Joule)
system.mem_ctrl.dram.rank0.readEnergy      1353608340                       # Energy for read commands per rank (pJ) (Joule)
system.mem_ctrl.dram.rank0.writeEnergy      103329900                       # Energy for write commands per rank (pJ) (Joule)
system.mem_ctrl.dram.rank0.refreshEnergy 11468567760.000002                       # Energy for refresh commands per rank (pJ) (Joule)
system.mem_ctrl.dram.rank0.actBackEnergy  39386335380                       # Energy for active background per rank (pJ) (Joule)
system.mem_ctrl.dram.rank0.preBackEnergy  22623763200                       # Energy for precharge background per rank (pJ) (Joule)
system.mem_ctrl.dram.rank0.actPowerDownEnergy            0                       # Energy for active power-down per rank (pJ) (Joule)
system.mem_ctrl.dram.rank0.prePowerDownEnergy            0                       # Energy for precharge power-down per rank (pJ) (Joule)
system.mem_ctrl.dram.rank0.selfRefreshEnergy            0                       # Energy for self refresh per rank (pJ) (Joule)
system.mem_ctrl.dram.rank0.totalEnergy    75222130140                       # Total energy per rank (pJ) (Joule)
system.mem_ctrl.dram.rank0.averagePower    517.739290                       # Core power per rank (mW) (Watt)
system.mem_ctrl.dram.rank0.totalIdleTime            0                       # Total Idle time Per DRAM Rank (Tick)
system.mem_ctrl.dram.rank0.pwrStateTime::IDLE  58454417750                       # Time in different power states (Tick)
system.mem_ctrl.dram.rank0.pwrStateTime::REF   4851340000                       # Time in different power states (Tick)
system.mem_ctrl.dram.rank0.pwrStateTime::SREF            0                       # Time in different power states (Tick)
system.mem_ctrl.dram.rank0.pwrStateTime::PRE_PDN            0                       # Time in different power states (Tick)
system.mem_ctrl.dram.rank0.pwrStateTime::ACT  81983834250                       # Time in different power states (Tick)
system.mem_ctrl.dram.rank0.pwrStateTime::ACT_PDN            0                       # Time in different power states (Tick)
system.mem_ctrl.dram.rank1.actEnergy        175008540                       # Energy for activate commands per rank (pJ) (Joule)
system.mem_ctrl.dram.rank1.preEnergy         93004065                       # Energy for precharge commands per rank (pJ) (Joule)
system.mem_ctrl.dram.rank1.readEnergy      1371372660                       # Energy for read commands per rank (pJ) (Joule)
system.mem_ctrl.dram.rank1.writeEnergy      107594640                       # Energy for write commands per rank (pJ) (Joule)
system.mem_ctrl.dram.rank1.refreshEnergy 11468567760.000002                       # Energy for refresh commands per rank (pJ) (Joule)
system.mem_ctrl.dram.rank1.actBackEnergy  37859841180                       # Energy for active background per rank (pJ) (Joule)
system.mem_ctrl.dram.rank1.preBackEnergy  23909232000                       # Energy for precharge background per rank (pJ) (Joule)
system.mem_ctrl.dram.rank1.actPowerDownEnergy            0                       # Energy for active power-down per rank (pJ) (Joule)
system.mem_ctrl.dram.rank1.prePowerDownEnergy            0                       # Energy for precharge power-down per rank (pJ) (Joule)
system.mem_ctrl.dram.rank1.selfRefreshEnergy            0                       # Energy for self refresh per rank (pJ) (Joule)
system.mem_ctrl.dram.rank1.totalEnergy    74984620845                       # Total energy per rank (pJ) (Joule)
system.mem_ctrl.dram.rank1.averagePower    516.104559                       # Core power per rank (mW) (Watt)
system.mem_ctrl.dram.rank1.totalIdleTime            0                       # Total Idle time Per DRAM Rank (Tick)
system.mem_ctrl.dram.rank1.pwrStateTime::IDLE  61811422750                       # Time in different power states (Tick)
system.mem_ctrl.dram.rank1.pwrStateTime::REF   4851340000                       # Time in different power states (Tick)
system.mem_ctrl.dram.rank1.pwrStateTime::SREF            0                       # Time in different power states (Tick)
system.mem_ctrl.dram.rank1.pwrStateTime::PRE_PDN            0                       # Time in different power states (Tick)
system.mem_ctrl.dram.rank1.pwrStateTime::ACT  78626829250                       # Time in different power states (Tick)
system.mem_ctrl.dram.rank1.pwrStateTime::ACT_PDN            0                       # Time in different power states (Tick)
system.mem_ctrl.power_state.pwrStateResidencyTicks::UNDEFINED 145289592000                       # Cumulative time (in ticks) in various power states (Tick)
system.membus.transDist::ReadResp              376439                       # Transaction distribution (Count)
system.membus.transDist::WritebackDirty         40473                       # Transaction distribution (Count)
system.membus.transDist::CleanEvict            342973                       # Transaction distribution (Count)
system.membus.transDist::ReadExReq               8471                       # Transaction distribution (Count)
system.membus.transDist::ReadExResp              8471                       # Transaction distribution (Count)
system.membus.transDist::ReadSharedReq         376439                       # Transaction distribution (Count)
system.membus.pktCount_system.l2cache.mem_side_port::system.mem_ctrl.port      1153266                       # Packet count per connected requestor and responder (Count)
system.membus.pktCount_system.l2cache.mem_side_port::total      1153266                       # Packet count per connected requestor and responder (Count)
system.membus.pktCount::total                 1153266                       # Packet count per connected requestor and responder (Count)
system.membus.pktSize_system.l2cache.mem_side_port::system.mem_ctrl.port     27224512                       # Cumulative packet size per connected requestor and responder (Byte)
system.membus.pktSize_system.l2cache.mem_side_port::total     27224512                       # Cumulative packet size per connected requestor and responder (Byte)
system.membus.pktSize::total                 27224512                       # Cumulative packet size per connected requestor and responder (Byte)
system.membus.snoops                                0                       # Total snoops (Count)
system.membus.snoopTraffic                          0                       # Total snoop traffic (Byte)
system.membus.snoopFanout::samples             384910                       # Request fanout histogram (Count)
system.membus.snoopFanout::mean                     0                       # Request fanout histogram (Count)
system.membus.snoopFanout::stdev                    0                       # Request fanout histogram (Count)
system.membus.snoopFanout::underflows               0      0.00%      0.00% # Request fanout histogram (Count)
system.membus.snoopFanout::0                   384910    100.00%    100.00% # Request fanout histogram (Count)
system.membus.snoopFanout::1                        0      0.00%    100.00% # Request fanout histogram (Count)
system.membus.snoopFanout::overflows                0      0.00%    100.00% # Request fanout histogram (Count)
system.membus.snoopFanout::min_value                0                       # Request fanout histogram (Count)
system.membus.snoopFanout::max_value                0                       # Request fanout histogram (Count)
system.membus.snoopFanout::total               384910                       # Request fanout histogram (Count)
system.membus.power_state.pwrStateResidencyTicks::UNDEFINED 145289592000                       # Cumulative time (in ticks) in various power states (Tick)
system.membus.reqLayer2.occupancy           930248000                       # Layer occupancy (ticks) (Tick)
system.membus.reqLayer2.utilization               0.0                       # Layer utilization (Ratio)
system.membus.respLayer0.occupancy         2030693500                       # Layer occupancy (ticks) (Tick)
system.membus.respLayer0.utilization              0.0                       # Layer utilization (Ratio)
system.membus.snoop_filter.totRequests         768356                       # Total number of requests made to the snoop filter. (Count)
system.membus.snoop_filter.hitSingleRequests       383446                       # Number of requests hitting in the snoop filter with a single holder of the requested data. (Count)
system.membus.snoop_filter.hitMultiRequests            0                       # Number of requests hitting in the snoop filter with multiple (>1) holders of the requested data. (Count)
system.membus.snoop_filter.totSnoops                0                       # Total number of snoops made to the snoop filter. (Count)
system.membus.snoop_filter.hitSingleSnoops            0                       # Number of snoops hitting in the snoop filter with a single holder of the requested data. (Count)
system.membus.snoop_filter.hitMultiSnoops            0                       # Number of snoops hitting in the snoop filter with multiple (>1) holders of the requested data. (Count)
system.workload.inst.arm                            0                       # number of arm instructions executed (Count)
system.workload.inst.quiesce                        0                       # number of quiesce instructions executed (Count)

---------- End Simulation Statistics   ----------
